* LTspice Encrypted File
* 
* This encrypted file has been supplied by a 3rd
* party vendor that does not wish to publicize
* the technology used to implement this library.
* 
* Permission is granted to use this file for
* simulations but not to reverse engineer its
* contents.
* 
* Begin:
 6B 4B EE BC 7A D8 33 BF 3C E1 2B F2 BF 5A 24 B8
 DD 35 2A E7 50 2F 47 25 B6 9D 84 63 01 95 C5 8C
 A9 3A 17 58 A9 36 67 5F 86 29 B1 E2 95 D1 52 67
 9C F8 0A 69 98 E8 60 D6 07 3B 18 B6 95 B7 BF B9
 F6 5D E7 D9 1F FB 75 45 26 CC E1 A8 D2 DF D4 AB
 6A 14 99 B9 03 EF 88 C8 3B D4 87 5A E7 D3 4F 84
 B7 03 2A BC 0F D0 11 65 E6 8C 06 C1 7C 35 C1 3A
 A5 07 4C DC E4 C5 CC 68 EB 69 C2 0F DD 8E 92 1C
 1B A1 CE DE 28 0A AE 51 89 A8 FF CE 1F A3 B4 6B
 D1 85 2A 32 E4 CB AE 15 B2 9E A4 C7 44 20 42 BE
 50 34 32 3D F6 9B FC 4B 83 4D 54 9C 20 87 00 46
 0F B2 AD 9E C1 60 86 CF 95 66 D1 95 E0 86 10 F3
 F5 BE 47 6E E5 4A 0E CE 0E C0 0E 31 EF D5 79 57
 1C F9 FC 9C 3E 70 FB 13 47 8F 9A D1 88 2C 24 E2
 12 E2 18 F0 22 EE 92 9D C4 8A 10 F5 01 70 22 1E
 A8 38 CF E8 09 47 C3 F1 F4 9A 9E B0 FE 8A 97 AC
 D4 5A DE DD 0D BB 7F 38 C2 E7 81 9A 14 29 03 3A
 44 AC B5 E8 4B 2D 16 4F E0 64 6D BF DF 7D 85 D4
 95 92 AB D4 19 4B 9C CE 55 F5 21 B5 70 B1 0D 10
 60 A7 EC C9 01 80 C7 B2 F4 0F F4 B6 35 CE 13 BE
 CC 73 19 BC F2 22 1B 66 D2 E4 15 16 99 0D F2 6A
 49 C3 67 2B 10 2F 4B 55 5F 14 14 94 7C 9A 39 F7
 F7 4D 31 24 F0 C6 85 77 EE 3C D4 50 70 E7 C7 EC
 98 3B 63 96 D6 67 81 E4 81 D2 AA 71 7C 8D C5 1D
 E7 FF E8 6E 4D 8C C0 AF 98 BA B2 6E BA F8 76 9B
 B5 EB 4A 24 7A EE 7E 4C EA A0 25 E0 65 94 66 16
 6E D1 38 85 8A E5 79 60 AA 67 1A 77 80 E6 F0 F7
 51 A0 9C 39 23 61 7B AC 63 A8 65 A8 9B 89 3F B0
 B8 F4 1D C4 7E 1C 43 AA D5 CD DD 2A 1F E5 A6 BA
 C0 23 1E 7F 77 8E 29 6E C0 D8 D1 7E 21 28 2D BB
 2C 22 E9 8E 9E 5E 06 26 CC DA 42 A7 7D 02 D9 83
 AA FE 00 7D A6 5B 9C 20 90 E2 AF 42 53 D7 C6 92
 FD 5D EA AF 4F EF 60 07 94 2F A1 B8 2E FA 6E 8A
 60 1A 04 1C 9E 8C 9A D7 DD 80 37 53 CF 37 30 41
 7D FD DB 23 3A 20 8B C8 A1 EE D0 C6 41 EF 81 44
 05 74 AD 45 30 98 95 AF CD 1E EC 7E EA FD 19 29
 0D 7C 5E E8 D9 85 0B 82 98 87 9A 60 4D 30 97 11
 46 12 8B 7C F2 EC 2B 4D 73 84 D2 E8 ED 78 FF 79
 0D 7F 9D 44 DC E6 2F A1 56 5D 28 4C 09 E9 6B 04
 9C F1 49 FD 0F F1 DB F9 28 EE D1 4B 1E 53 03 E6
 7C CC 82 E3 59 58 7F 28 D5 55 9F 21 91 BC 08 5A
 B1 73 A6 D7 38 82 02 22 7C D1 DE 7A B0 50 2A BF
 76 1C 5A 17 03 A2 88 CE 8D 64 7A 19 BF FD 5F 58
 C4 C7 58 79 F0 16 D8 0C B6 80 20 B4 C7 2C B1 ED
 4C C6 A2 D0 36 F4 0C C3 AE FB 8D 0B 7A 5D 34 ED
 4C 5C A2 D7 96 5E 52 5A E2 82 7F 37 FB 08 FA 74
 AB E4 A9 8E D3 2C A2 60 0F 5F E7 DB D4 AA 5F D1
 5F 8C 96 51 4C DC 09 A7 AA FA DE CE 90 73 D0 E3
 F9 FD 36 B4 32 F4 BC E1 B1 CF 8F 44 93 F8 C9 38
 25 71 CB 54 FE EF BE DB 29 EC 28 FE 48 37 01 11
 EA 48 D9 D6 15 97 7E C7 69 15 98 40 C6 D6 01 60
 1D 92 CE 10 9E FA 8E B6 38 CD 9B 92 F2 B9 12 4D
 AB E4 BE 51 3A 27 C5 6C BB B1 B9 8B F3 B2 EB 84
 FC C2 AD 7A BE AE DF A1 0A 5E DA 47 AB 03 96 50
 73 DB AE 0E B3 C6 B7 0D 37 E7 F0 44 9B 9A 38 9C
 0C 23 EF FB 3E 1D 61 96 8F 0D 2D A6 BD 9D 5A 42
 05 E6 C9 3E 94 FD B4 A2 FF 80 59 4E 33 73 99 1D
 85 AD 5E 5F 25 AD FC 9D 7E 72 EB A6 6C FF 4A 1A
 4D 43 F6 32 69 7C 39 D7 5B EE 76 90 5C E8 9E 19
 01 16 3C 0B 38 83 64 A2 AA 60 62 CC EE 02 05 58
 6D 58 FA CF 82 0B F1 B9 1B FA 77 DF 55 94 E8 D2
 99 AC E7 43 A4 DD C5 E9 2F 89 B8 90 4C C4 A3 0B
 B2 36 A3 8E 02 1E E9 14 68 11 96 7A B3 75 45 40
 5B 5E B5 81 9D 53 21 76 A0 E7 92 65 A3 65 5C 7F
 76 B6 DC 20 D1 1F 6A 09 0A 14 77 BB 04 64 9A 0D
 6C 98 0F 29 39 25 84 27 95 08 43 08 09 89 CB 79
 62 ED 08 40 98 45 8A 10 C2 1B B5 4D B1 33 B3 5C
 AC 98 35 4E FC 35 CE AD DB 2E B2 3A A9 89 A8 35
 B1 6F 5C 5D FD 54 8C D8 ED A0 E4 43 88 03 18 C2
 DD F8 F0 B1 D5 5C 9B 52 AE 85 55 39 8D 84 A1 CA
 C8 FB 71 0F CF 76 02 00 C5 D6 7D C8 06 EE 06 CC
 8D 56 EB 6A B2 BF E2 7F A9 1A 62 6D E5 49 B5 DF
 1D C4 9A D3 C3 58 BB 1E D0 3F EE D2 AD A3 4E EC
 1C 63 E1 03 6A 2F 4D 37 79 6A 73 CD 3C 99 A3 B3
 F6 80 D4 D1 D8 2C FA 3B A1 A0 FE 2B DF 4B 90 22
 2E 24 A6 EA 78 99 3E 7D 22 69 8B D5 0F 5B DB AA
 34 94 CB 3C 77 AF CF 09 5C EE C8 CB 95 B0 0E E7
 6C 42 CF 75 56 61 F5 DF 77 88 B2 32 0B 7B 12 7A
 78 22 11 4A C7 59 23 96 78 5A AD DC C9 B7 77 CA
 2D DE 32 E8 53 60 6D 36 41 2A 4F 51 35 DC C7 AB
 4B AB 42 53 2E BF C8 15 9A A3 F4 9E 2C B3 24 2C
 C9 E9 3F 7A D7 1A 70 A0 95 92 BF AF 2B 51 A2 31
 85 DB CB 1C 16 7D A3 CC DA 0B 1E AB 53 5D C8 D3
 F5 23 6D D5 CC F6 33 19 5D 7F F8 FE F9 F9 C8 DC
 23 64 C0 F1 7F E4 3C 8C 46 02 18 F0 34 22 75 1F
 EC EA 49 1B B4 67 BA 34 27 EC 9B 3D 32 E1 FF 6F
 ED E1 A4 7C 1C 33 18 50 8C 2D CB 9A 90 2D F5 5B
 F0 D0 91 D0 9F 07 C1 2D 1C F5 E7 B3 47 5F 10 4A
 45 91 5A 4E F2 E7 B4 FE 03 FA BE 77 4D 19 EF 06
 3D C4 6B AE E3 E8 3B FF A3 BA 43 EA CA 97 ED 6D
 61 BF 64 23 B9 ED 4C DB B4 10 37 E9 73 3C 3F E5
 AC F8 5A AC 94 41 2A 50 8A E2 82 A2 1C 03 19 3F
 AB 4B E8 2A 1B 29 4B F3 A8 14 8F F2 B1 19 0C 70
 8E 64 33 79 C3 10 C2 02 6E 19 11 47 45 63 5D 53
 DC 0F 87 A6 A7 35 DB 64 E2 48 C8 DE 54 03 DB 1B
 3F D8 B4 52 33 B5 9A 01 81 0A 5E 49 93 97 57 7A
 6D 33 1F E0 DC 75 14 33 4B 79 67 A5 62 A8 4E 3E
 4F 40 BD 4F F6 07 C8 C1 EF 3A 2B 6F 85 88 15 B6
 87 C6 60 ED 99 5C E1 68 6A 77 C8 C8 28 F4 CC B2
 7D 3C C1 76 1E 04 F0 31 9A 0F 52 82 6F 94 0A E9
 90 B1 45 BA C3 EC 92 7C 92 DB 32 6D 48 64 4C BB
 B8 44 A0 7C 3B 09 16 26 E1 A8 EE 8C B7 C9 86 E2
 9B 4F 5C F0 6D 95 F9 DA 63 26 A1 91 5B 8E F8 AD
 02 AF 8D A7 AA 78 B7 EA F4 F8 5C 8D EF 51 47 83
 DB 1A EA F9 17 9B B4 0C 69 4F D6 CD D2 81 28 CE
 16 97 D9 12 43 FA F1 FB 52 33 68 99 53 C1 16 D3
 2C 19 52 23 83 CA D8 62 67 13 B2 C0 88 25 A1 9F
 FF 1A 0F 78 23 9D EF 20 B0 79 8C FF AB C3 28 5B
 1A 07 A9 8D 69 7A 04 F0 BF C9 18 6F 9B B3 D8 32
 CE EF 46 6D 3C 12 3B CB FD D3 BD D4 7B 3B 26 01
 3C 07 7C 04 94 45 3A 4F B9 64 EA 15 45 05 B2 BD
 09 12 4E 6C A3 C7 E2 23 22 CE 9A 02 D5 9F 73 14
 03 52 FA A9 2E B1 34 11 DB A8 E6 6C B5 11 56 68
 8F 70 B2 32 3C 94 74 4C 1F 5A BE 05 CF 6A 5F 59
 DC 50 36 4B 3F F7 63 C4 D9 77 72 DD ED 5A 1C 15
 ED CB 79 9A 69 74 71 03 AA E2 E1 FD D9 2D 36 53
 0D 9A 42 08 C4 47 1A 28 FF 22 E0 89 CA E3 04 D1
 EC 95 AD 0D 73 96 DF 0F 95 BC 7E 2D A9 0B AD 5A
 73 B6 C3 3B BF DA 87 B0 B7 1C 6C B9 08 E4 B1 81
 E6 5A 0E A3 01 65 AB 18 BD ED 1F 30 D8 BB 83 FC
 9D 7E 3D EC E6 E9 47 E5 01 4C 66 FF F4 FC 3E C9
 78 90 E0 62 5A 85 C4 3C C2 C8 D5 07 BD 87 CC 1C
 1B C7 D7 7A 81 26 C7 21 2D 6B 6B 7A 50 A0 4A 95
 01 EE 00 84 63 04 26 9B CF 03 04 E4 02 5D C2 4D
 32 9F E2 66 09 C5 DB 6A FA AA 66 4F 17 2C B2 15
 25 73 A6 6F 5B A6 FF 1B 03 C6 7C 93 2F F3 6A 34
 E0 A9 6A A5 B4 AA 76 08 92 A9 EB 28 3F D3 9B CC
 55 B6 F2 43 1F 73 4D CC D2 34 FC 51 06 D3 0B 72
 5C 16 E3 F4 A9 E1 DA 7B EB C9 38 80 25 D1 97 E9
 28 00 E1 B5 8C 07 BB AA EE 73 54 29 8B BA A2 6C
 A9 68 26 BD 51 E7 94 63 82 4B 7B 79 02 31 6D B4
 1F 97 74 B5 E5 38 F9 06 94 04 48 5A 5F 19 7D 58
 53 9D FA 36 5F 32 BF FF 4A CA 7E 2C 0F 1F DD EC
 7F 9F BF B2 01 15 E0 EA 3F C0 A0 57 6C BD 2C ED
 1C D6 FC 81 F0 37 01 B8 D6 0E 18 FE FC A1 B9 B3
 15 A5 6E D3 2D 3B A3 89 A1 4C 09 5A 8C 10 F7 31
 0B DD 05 3A 02 81 D0 8F A1 48 18 D7 B1 01 D2 CC
 6C 74 C8 E3 2A 9A 3F 0F BF 6D 30 0F 51 21 A1 42
 E0 A1 0B 45 47 41 EB 5D A3 94 91 12 90 71 66 B7
 C7 1F 3E D2 EE FD 92 88 46 42 55 5A 33 21 44 C1
 5E 37 3E 93 41 B2 73 9E 4F 19 C4 D6 DA 63 34 54
 75 CD 79 FE 19 ED 8F 8F F3 0E 42 52 0D 29 03 92
 5B C0 35 BB C3 75 0E E9 1D 0B 9A C4 32 AF 4C F8
 EB 99 93 1D A9 10 52 30 7A 72 5B 28 BE DD FC 18
 ED 64 34 97 55 4A DE 9A 3F 32 15 E7 29 8B 04 E5
 9B F8 28 39 41 8B 78 8B 00 02 19 85 07 0C 51 81
 9F 84 DF B1 9B A9 A4 22 F6 AC 0E 0B 15 29 E6 9B
 DE 62 45 CF 49 71 C0 F6 1E DF 49 26 30 C9 F7 AE
 24 06 E0 E7 7F D4 8E 2F 1E 34 4E 01 CF 04 49 61
 A6 A5 66 2F 37 21 7C 1D 28 22 07 44 6F CA 99 5E
 64 EC 5A 89 3A 37 9C CE 38 1C CC D7 CA 10 34 3F
 1D C9 74 CD 96 53 C5 A2 1C 0A 54 69 F9 B1 FD 35
 4A 25 80 3F 24 77 2C A6 58 7A FB 27 2A CF 1F BA
 E9 E4 D2 81 5F 49 9D E3 C8 23 A4 88 02 DA D7 89
 03 D3 B9 39 7F 45 97 27 0B 78 26 D4 0A 3D 65 DD
 5D 6F 1B D9 91 B8 33 6F DD 03 72 D5 66 06 B2 AA
 69 C1 1D 8C D0 CB 79 3B F6 D5 5D 90 A1 B3 D1 2A
 D0 4B 50 08 82 2E D5 0D D6 F7 5D DA 8B 46 AC 8F
 4A 48 18 86 78 8A 5E 56 FB 5E 50 07 B8 4F A0 08
 A5 C9 3F 4C BE 5D 10 96 E0 94 24 4B 6E 9C B5 D4
 7C DE DF 06 1E 70 29 F4 99 C7 3A 02 48 36 76 8C
 19 7F 8B C5 90 6D 9D 88 9F 7F 7C 6A 20 94 0A 35
 91 EB 12 54 98 50 F0 DF A6 6E 0B C3 85 90 F3 67
 45 DD 8B BE FC 46 E7 9E B6 D5 AC BC 69 68 8D 9F
 75 4A 5A 24 44 81 09 A9 16 8E 4A 8F 24 28 84 48
 13 9C 10 CB ED 95 A7 33 E6 0A 62 44 96 4C 82 22
 38 9A 51 A2 2B 3D 26 2A A0 64 3E FB A0 05 1C 61
 DB 24 5D 1E BA E2 2A 3C CB 4A 89 1B 08 87 DA FC
 CA 59 7C 43 5A A2 95 B9 11 75 22 D9 54 15 ED 06
 19 DF 73 AA 73 8E 89 38 7E 6F 91 73 A4 E4 1E 7B
 1C 5D 47 94 81 32 1C 2A F0 80 51 AE F2 70 9D 46
 0A 09 E4 9B 17 07 F4 62 4D 17 C2 4C FD 7F CB 56
 45 D0 A8 9E 19 16 EE 32 3B C4 63 2C 6C 22 F7 4D
 96 C0 D0 F2 C7 D9 80 8D 44 43 B5 E8 42 0E 17 0F
 74 55 D0 BC 18 38 CE BE D7 2B 04 D6 E8 08 B0 DA
 94 DC 38 3B 34 67 34 FC DF 9D 6D 92 6B 0D 59 3B
 43 A0 CE 4E A1 A8 DB BD DB 55 99 42 27 59 30 F0
 97 FE E3 EE B3 8D 6D 67 B6 9E FE A6 6A 91 92 71
 3E 8C FF 0E 81 FA 4C 12 BE 57 1C 2D E4 93 E1 21
 79 74 FC D3 B7 5E F0 35 8F 98 88 9D F0 87 D7 5C
 72 0E EB 98 80 0E 25 15 EB 3A C1 09 0A 66 FB A5
 45 E3 2E 0F 86 7D 14 CD 4C 61 01 CB D8 67 68 C1
 58 F8 EE 0E 3A 14 BC 6D D3 91 95 DF 9B D7 FB 9B
 CB 4E 05 49 0D 7D E4 56 74 34 6F D5 7A 7A 53 C2
 06 BB 2F 2E 58 9B 61 52 A4 33 44 33 26 A8 94 BC
 09 F0 B8 F9 08 DD A0 46 B9 39 40 B2 BE 21 7F 76
 34 E2 02 06 77 C7 CD 45 86 A4 D9 37 08 F2 FA C0
 EE B1 9B 21 96 FE 51 C1 BD B2 A7 F1 70 BC F3 5D
 A4 85 B0 F2 3D 98 EA 8E 73 A3 11 80 28 91 52 2C
 9D 84 C1 62 F4 2A 3D BD 49 97 D9 A6 42 53 59 00
 E8 A0 5D C0 CC E1 B8 A7 E0 76 3D B1 15 15 8E A5
 B5 AC 39 06 AC 61 8A 76 DB 66 20 86 0A DA 59 05
 AB E9 E8 DA 3D AF BF 00 C4 A4 66 70 A6 2A 67 E8
 6E D0 98 E6 6D 80 8E 4B DD B9 64 C8 93 56 2F 7E
 11 F5 6C 42 FC 9A 22 23 78 60 33 DD 66 AB C7 6B
 9B DF BC 7C 12 09 9C 22 AD 0A 8C 79 15 0E C9 2B
 D1 E4 4B 08 E7 91 D6 1F FA 81 E9 D9 D1 0B BC D1
 29 CD 9B 3C 41 01 96 9B 0D F6 C8 D9 8F 82 7D 09
 96 36 5A BC D4 B1 B4 E0 A1 97 F3 9E FC FF A3 55
 69 9C CD 0E 3B FC 7A D2 AF 0B 21 E4 EE 8F 1D 7A
 FC DC AF 22 B0 B6 74 CB 35 3C 23 79 C8 55 C8 4C
 D1 CD 01 53 FF DD C3 1A A1 4F 8C 35 E6 49 20 C5
 82 DA 38 63 C9 DB 09 B6 EE 90 0B D6 85 6F E5 69
 95 A8 AF B3 B9 89 AF DA A0 29 43 80 51 1A B0 48
 FB C9 66 20 E9 EB 87 A3 B3 D9 82 9B 50 EF BF B0
 95 32 84 31 36 E7 8E 54 94 41 ED BD FC D2 A7 57
 E3 C6 C5 1D 91 99 D4 A5 45 C9 0E 4A FE 5D F8 C5
 B8 98 87 32 AD 6C 45 47 76 70 99 52 6B 0B E8 A8
 D2 B9 F3 C5 3B 63 67 D7 34 26 0B 6E FE CC 66 ED
 50 FE 1D F0 81 82 3C 9E 0A 8B 6B 69 6E EE C0 C9
 5F 8A AC 7F 07 95 D8 14 AB BD 5C 33 A8 61 EC 6F
 CA E2 1E 2B DC D5 EB 7C 79 08 0D 79 D2 12 DC B1
 D7 88 58 D9 9E DB 48 5A FC 29 F6 6D 1C 90 14 BE
 3B 01 BC CD C6 89 DA BE 4B F4 F5 A6 CA 82 13 40
 87 8F 4D E1 A4 38 16 28 02 43 DF 85 6C 08 56 62
 E7 46 C3 FD B5 C4 B7 35 8A 70 88 04 D1 CC AC FE
 5B 8C 1F AF 07 64 DD CF 04 F7 A2 D8 43 B0 EF 90
 D3 14 CA 9B 7C C0 55 7F 2A 93 72 78 A1 52 48 8B
 3C CD 86 C8 E6 FA 60 0E CE A7 55 09 2F 92 F0 AA
 15 19 75 71 51 D7 98 1C FD D4 8C A6 79 37 76 30
 F6 D4 87 B5 66 63 21 E2 0B 50 D1 E0 81 23 3D F2
 74 22 FF 35 B9 90 91 CB 4B F5 A6 84 F9 C3 09 3F
 63 11 75 7B 9B 04 F1 24 8C C9 C4 8C D8 CD F7 C8
 7D 5B F6 22 36 FA 94 DE 12 49 E1 9A E7 A5 45 7A
 E0 73 46 B7 B8 02 DC FE 7E 6A 12 D0 AC CD 71 44
 EB 30 93 52 34 2E 3D 83 A1 DB 6B FE 31 E5 13 E2
 C7 F1 5A 07 D9 06 BB 3A 81 6C 46 09 26 3C 8A CB
 43 EF 90 8A 30 54 E5 7E 65 19 62 3E 1D 38 01 C4
 67 F3 2F 7A 5E 58 16 E7 27 40 2A FB 8A 26 55 85
 78 96 0B BF A2 72 94 AF B3 7F 5E F0 2C C6 10 9B
 BF 68 23 89 0C EB 23 76 36 D5 98 32 5E C1 63 DD
 13 41 86 CF A3 85 C4 E1 9A 9B 1B 19 C9 F1 A2 52
 F8 2A 39 70 92 0C 73 23 70 EC EE 61 C2 AC 63 96
 50 5B FB 8A 46 17 6F 04 34 78 0A 14 46 D8 2E 3C
 57 74 EE A6 8D A1 33 B3 09 48 98 4D CE AB 25 EA
 62 AD 8E F6 16 E2 70 6D B2 5B 99 7C 78 7C FA 9F
 CF 08 28 D7 D4 9C 64 9C 32 F1 43 AC 2F E1 32 4F
 2E 49 E3 BF C8 66 F6 F8 F6 67 1A 68 3A DA 75 66
 AC 5D 61 B3 46 9A FA 95 E2 1B AF 45 6F 9B 1A 35
 15 2C 12 A3 67 93 DC 43 06 E7 08 85 99 B9 8E D7
 9E D6 E4 DF DE 1E C0 28 6F 46 62 21 63 12 C9 79
 BB DB E5 01 18 41 8B 19 82 A0 6D 9B A4 8B C5 11
 6D 6C 90 91 9F AB 7E 78 C7 03 93 3F 29 13 A1 79
 06 BD BE 2F 1A C1 15 25 32 AD 6E CB A1 13 73 0E
 B4 10 83 8C 39 66 33 A8 C5 05 9B 8C BC D3 80 3F
 1A 0A 74 73 16 10 3A 84 D9 DB E0 08 F3 68 38 C1
 FA E2 42 2F 05 E2 1C DD F9 F2 D2 F6 0C AE 7A 2E
 21 D9 5A F6 BF 01 D1 81 8B F0 07 A0 B3 8B 8D 51
 F6 15 7F FA 1E DA 2E DD BD 2E 13 D3 51 75 D0 5E
 D3 EF E7 0F 75 DC 88 A5 8D 23 04 0E 69 B9 8E 00
 E2 51 55 85 64 1B 95 0A 99 6D B9 EF F3 1F 12 45
 00 CA D5 A6 D0 A7 CB 26 2D 86 54 3F 32 F2 0C 08
 3E 89 6B F0 CE 57 70 92 61 28 63 C7 99 F3 5A 52
 5F BF B0 99 01 32 24 0C 26 E3 02 A3 D4 8F 4D 20
 83 F5 BF B9 F6 66 38 1E 21 27 C5 49 E4 08 83 35
 CB 70 34 32 D0 90 ED 21 D4 7B 03 4C 5E 0F FC CF
 06 44 24 AC 07 2E 30 E5 01 BC 20 81 3D 0F A0 E1
 B5 BF 02 29 AF 66 E5 52 60 B7 3B 57 4C 22 BA C0
 1D AC 74 6A B9 E3 D7 A4 AB 49 7F 21 7E 42 92 0E
 67 DB 69 BE 4F D8 FF 4D EA 73 3B D4 8A 8C 9F 78
 BF C7 0E EF 3D D4 35 3D C0 8B FF B2 9C E2 2C 2A
 95 3A 69 00 7E D2 AE 72 10 9D 60 2F E9 74 C1 92
 00 CB 91 90 F5 A9 A0 59 FD 24 78 12 11 85 34 83
 0E E6 14 A1 3B AC D6 41 AE 0F B4 4D 1D 58 C4 9B
 E3 98 47 C7 CC C2 5D C1 6F EC 0F 3F 69 06 B5 1E
 AD EE 8D 8B 1E 4F 85 0C 5E FD 4E 48 9B AE DF 6F
 2E B9 5C F9 D7 5F BE D7 31 67 38 EB 95 9A A8 99
 D1 B3 F0 28 F0 1E 4A 38 F4 56 6D EB 6E F0 FD DD
 CF 46 47 C7 0A 4C D9 BC D3 2D B7 34 2C FF E3 2B
 42 25 F8 71 93 69 5E 60 41 77 BD 5B ED 37 86 70
 45 CD 5E F5 A0 49 04 F5 A9 0C 7A 2F 0B A2 65 BD
 92 7B 1E 39 47 6B 07 6F B0 EF 2B 06 E1 F2 FE 35
 D1 FC 4C 3B C9 9B 26 F2 45 FC D6 3A F6 8D B3 9D
 9C 7E E6 02 E5 D4 0B 4B 13 BE C8 1D 13 01 FA 18
 D4 81 00 B1 2B 1A F3 6C 9D FB 3D 03 36 7E 35 04
 26 DE DC 40 F6 31 48 C2 0E CF D9 4D 4F 70 B4 E5
 66 FE 8A C8 2E B3 99 37 CA 35 8F B0 CA 6F 94 15
 44 81 94 C2 F0 5D B8 CC 81 86 9A E5 3A E3 DB 8B
 A3 66 5F DB 22 C8 4A 29 BC 14 08 A9 FE 1C DE A1
 C4 E5 B8 AA 04 6A 09 53 BD 24 1A FB C5 DD DF 80
 1C 6C B4 86 22 58 7F 69 63 A7 14 13 07 50 5D 45
 2C 44 E2 66 33 C5 40 C0 BC 4F 50 3C 2A DC D8 1D
 B0 51 2E 70 E0 EC 1D 58 37 48 75 D5 6A A2 9B C9
 7B 94 99 3C 36 B5 C4 D3 BC 3A 16 D6 50 BB 84 40
 6C 41 58 3F 7F 8A 6A 4C D3 07 8E 11 71 9C A5 84
 C3 44 B6 43 0A C3 EC C2 5B 21 E2 1A 5C 94 E0 0D
 E6 0E 25 FF 82 E2 D2 F2 F5 52 99 94 7A C6 3D E9
 08 B4 90 91 16 33 A2 44 0D 15 07 1A 1B 9F 7C 00
 C1 76 DE FE 4A A8 6B E0 A1 2C C1 E2 3E 28 AC D6
 34 52 22 1A 3F 99 2B 01 FF 42 D0 B1 63 47 F1 4B
 47 42 28 33 D7 8E 8C E9 9C 67 52 A3 C7 EF 75 DF
 6F 4B 19 EA D0 A5 19 17 AC A0 38 1F 0B BD B1 66
 BA 55 B7 FD F7 37 32 AE A4 76 89 79 62 6C 93 3A
 4A A2 6D EC 53 DA 77 79 1A 71 9A 0C 3F 93 71 30
 ED C6 75 DA CC 66 63 91 A4 4C 4E 20 39 34 D6 8E
 57 DD 8F E8 8F 07 52 40 DA 7D 33 F7 8F 88 9E 57
 A6 20 B7 A0 77 58 F8 DF 12 63 EB EA 4B 35 60 2F
 D8 37 9D 67 FD 49 26 0F 7E D5 0F 07 F7 6C 3B 52
 0C 0C 04 C1 8B 28 81 EA 57 A5 80 FF B2 5A 36 BC
 2A 1A 6C 37 8B B7 3F AC 21 DC 52 C1 C9 62 EB B0
 4C 20 CF FA 6B 87 9F DB 0B 18 DD A6 E6 90 C4 89
 63 49 93 87 DE D9 1B 40 F1 6A C6 59 FC 6B EA 17
 36 2C 24 2F 9B 1C 2A A7 F2 11 09 59 E9 9E B2 85
 6D EE A8 CD 17 BE C1 7D 9E AC 12 0F 64 A1 17 CA
 F6 FE 43 CA 31 BF 48 13 1D 3C C6 9A A0 41 B7 D2
 64 60 88 9C DC FB 4E 56 76 0A 5D 62 A3 73 FD D8
 B5 54 DE 88 B7 6A 16 4E 3A 57 5C E9 33 CE 3B 76
 76 D6 52 05 9C D0 B7 87 E1 92 4D 67 EE 54 B7 A6
 06 25 66 AD F7 34 BC 49 A0 04 95 43 F1 FB B9 7A
 0C F1 36 1C 1E 55 FB 22 38 F1 91 B3 63 65 D4 3B
 7D 73 E9 45 DF 87 31 C2 B3 F9 33 23 F0 9D E2 68
 93 4D C3 43 8B FB 37 AA BC 34 0C 45 02 76 A4 F1
 EF F2 FB AF 77 F6 29 A9 07 C8 12 D4 A1 2D F4 5D
 DC 90 04 43 3A DE 5D 93 51 31 B8 90 BB 3F 64 CB
 37 78 6F 63 28 2C BE 97 72 22 F6 B9 6B 47 52 39
 17 27 92 86 3B 67 FC BF 9E 5A 99 27 DA 30 F4 0B
 B4 58 B1 3F B1 BB FB D6 5F B9 11 E9 1F C8 29 12
 C5 A7 44 94 BF 10 90 52 A4 9F 61 A2 48 E2 04 0C
 A2 88 DC B4 B3 4B B3 F1 05 90 A7 15 D5 59 31 0F
 E1 B7 E8 3D 23 35 58 0D 63 D8 E7 80 0A 44 88 FC
 36 19 B2 2C F1 8B 6E 52 39 81 A5 4F C1 16 F1 8D
 4B 95 37 09 B6 5B FF B8 5F E0 77 33 C0 79 01 21
 D6 3A BA 65 32 7B C0 56 0F A2 2F 39 5C E8 2D C9
 C9 F3 34 F6 5A B6 D9 89 24 61 B3 C3 9F 2B 42 18
 BE 20 97 67 0C 54 8F 18 1B AF 46 4F C6 DE 93 65
 3E 13 BE 91 50 D1 5B A1 94 89 3A 42 2B F6 F0 22
 0E E3 A8 90 E7 6B 95 0B EB 5F B6 0D 61 75 52 94
 13 BB 91 DE 20 A8 20 D2 4D E8 0B 70 F4 2B 35 36
 95 02 2E B6 9A 0D 81 AE 40 E3 E2 47 9C E0 90 ED
 EB 4F F9 60 3C 7C E1 8B 7D D0 DD 6E CD 30 57 A7
 85 91 AF F9 C7 29 97 4B 54 D6 6A E3 18 01 A1 D7
 FE 7C 26 33 E2 1D FF 8E 4D AD DC 91 28 D3 9F E3
 9E 86 E3 D5 78 17 55 B6 DC DF 76 7B 94 58 8A EB
 D0 02 9B 93 25 D9 76 4A 4C C8 82 0B EB 9B E4 97
 1C F1 F2 51 3A 69 D8 50 AE A7 46 1C 51 4E 1C A5
 18 B6 6A 2D C2 07 55 6B 1C A5 36 4D AE FC 87 C1
 E3 BD B8 B3 CC F5 26 17 E9 93 85 51 6B C6 40 2E
 FD 1F 63 28 F0 64 7D E4 F9 B4 D9 8D 4F CE 70 C8
 8F 88 53 54 2B 2E F2 BD 30 AB B8 07 AE DE 9A 08
 CB E1 5B 5B B0 16 75 5B 3B DD 3E E7 55 16 3E BA
 85 3C 8E 34 34 E2 13 60 58 BA D6 19 DF BD 51 49
 DB 58 DB 53 13 55 F9 8E 11 C1 0F AA D9 44 50 9B
 E0 31 A4 E0 05 2B 63 40 40 5A 60 BB 3F 4A A8 00
 FE B5 3E BF 4C 5F 26 93 78 6D 0F 16 38 50 9D EA
 73 56 F6 10 E6 30 69 F3 55 94 19 70 E7 45 99 3C
 18 22 4D 74 33 A2 4E F9 28 20 29 00 F4 29 23 E8
 D3 3E 8F 8E 6F 3F D8 B1 C4 4A 35 87 C2 4F 90 9C
 BC B3 33 AA AE 49 EE 05 19 90 E4 FC AF 63 F1 72
 59 C8 3F 6E 0B 07 EB 14 85 FB 4D 01 4D 8E E8 37
 E2 A0 7F 74 78 59 58 A4 E2 1B 50 DA 04 46 0B 97
 9A 18 4C 55 0A A8 4E 2A 02 84 EB 69 19 F2 A5 1E
 01 10 DA D1 A5 23 A1 4F ED C7 6F 8D ED 48 70 A0
 35 DF 0A E2 24 D1 F7 F8 4B 40 6B EC 53 3C A7 0C
 76 AE A5 DA D6 92 E1 FB 02 1D DE C4 77 46 FF 15
 7F E1 82 04 18 4E 98 00 35 5B 90 E5 F6 D0 EA F4
 BD 99 14 70 CA 4A F3 99 6A 40 49 38 C5 CB 98 FF
 8D C5 0F 09 90 D3 51 57 1E 40 3A CB 19 D7 0E 22
 6C CB 11 1B 56 EA C2 FA 35 80 15 48 87 A8 84 BD
 EA DB 5B 67 AF 3A 81 EF 38 42 0A E8 A0 0C AF E7
 89 55 AB ED 89 AF 15 80 48 DE 6C 3D 88 A9 EA 15
 D5 20 0A B6 E3 63 9D 29 87 0B 18 8E 1E CE 69 CA
 1D B1 46 85 9B D3 F7 CC 77 63 DC 8D 3E 3B EC 0A
 A4 56 D5 E4 81 BF 1A 56 FC E7 34 B6 CC 1A 95 EE
 BE BF 37 3B 92 E0 F7 5B 4C AC 8F 3D 20 28 76 88
 4F BA 4C 3F 56 50 36 0B E4 21 22 6A BF 21 44 F6
 B0 A8 BE A5 F9 3A 4D A7 95 6B 1B 87 80 28 BF 24
 25 2B 42 43 DA C6 A2 57 AE 79 7C 06 45 FB 41 6D
 E2 D2 07 95 C6 91 9F 6C 6C 2A B3 EC C2 52 76 6F
 6A 96 89 2D E1 2A 39 A2 F2 71 CA 6A 10 60 52 9A
 F0 19 B3 02 DA DB 73 CC 8C AE B4 20 9B 37 A1 DB
 58 2F BB C7 40 95 90 22 07 9C B1 04 B7 4B 2B 66
 F1 51 6C E2 4F 19 4D C9 5C 5A 11 8B 62 E1 11 0A
 05 04 DE F3 3F D1 DA F3 23 77 84 AA 36 68 DB B9
 A1 D1 F9 33 C7 F7 5A B5 45 C4 10 73 E9 83 C4 17
 0B BD 26 36 20 8C 39 D1 35 2C EE CD B9 05 17 6D
 7F 9E C3 1C 66 E1 A8 E8 A9 DC F8 89 32 5F 2E 88
 1F B2 2E BC 7F E3 C7 1E B4 20 36 63 19 89 21 63
 F0 FE B3 62 97 E1 1E 00 AF 7A 31 F9 2E D9 F2 35
 B9 6D B5 BF 0F 4E BD 3F 2F 54 8C 36 55 18 D3 55
 A6 9B F8 E2 8C 32 57 BD 80 B4 01 55 02 2F B8 4A
 A5 93 96 C3 CE 58 6B FE 8C 60 4F DF 0E 65 65 8C
 B0 D6 AD 6E 00 D1 51 90 30 DF 2F 02 E2 CB 70 2E
 67 46 59 DB D9 CE 8E 70 A2 BF 8F D3 B5 8F 13 C7
 6F 3C AD BC D5 C1 E6 70 DF F0 8E F5 EE AB 42 30
 00 03 0D AB 7A 82 8B 7C C2 51 EC 65 4B 78 13 4E
 7B 21 F4 92 3D AE 96 9A BB E0 4A 5F E4 24 85 34
 68 60 00 1A C7 C7 8D 50 05 A5 C5 36 14 06 B3 95
 40 79 72 E3 CD BE CB 73 F7 3B A3 32 69 68 3E 41
 6C 5C C0 26 67 02 C2 56 40 0C 4B DE 9A DD 71 66
 6F 38 26 AF 41 85 36 BA 43 7F A1 CE 5B 50 A6 34
 7F 6A 41 8F 72 54 2B D7 1F 57 38 D0 A0 6B 4A 27
 41 A5 6C B9 C6 BE E8 1D 5F 2C 56 28 FE E7 97 C2
 BB 33 84 46 8F 1B CA 1B 8C 42 C0 11 32 E4 AC 78
 BD EF 5D FE EC B3 61 0F B8 80 A9 AF 78 78 03 93
 15 34 CF 69 CB E4 B0 E3 AE 4D 2B 8B C4 B4 06 09
 1B 31 BB 51 60 E4 77 03 8A 80 E2 FA 8C B5 97 53
 99 25 69 FF 93 4B 0A 87 40 95 7C 14 19 81 89 4B
 15 FC 4B E7 58 AB 7C ED CE CC CE 7A B8 AC 65 4D
 16 00 26 A3 FB 7D D2 97 26 1E B1 CD 45 9B 19 37
 19 D7 C3 EC 22 95 4E B5 5D 6D 29 19 1A B1 9C 9B
 3B 55 4D B0 BE 04 9D 94 B4 24 A6 DB 50 4C D6 5C
 CE 92 4C 0C 29 13 FA E5 2F BF 2B 22 5C E4 A7 85
 72 5B 4D 0C 3E 16 56 6C B1 3A 5F 93 F9 E4 79 0A
 28 42 FA 0E AF 48 31 89 99 B4 B0 2B B5 60 EA 94
 59 61 68 C3 81 5D 2C F7 0F 9C 21 53 3E F2 37 68
 42 DA 9C B3 24 69 50 F7 F9 A5 E6 24 9D BA FC AB
 36 75 E4 44 84 F5 93 E9 2C 1E 83 2D D8 34 34 39
 F4 6A 0C AC 33 30 6C E9 24 CB 41 42 22 5E 5A 56
 92 AD 93 71 A4 49 FE DC 90 B9 2A DE F3 C7 28 A7
 6B 85 23 5B 7D 68 E5 7A 66 7F 28 95 24 E6 D8 31
 56 76 34 86 F8 3C B4 F3 8A 3E D0 A6 E3 53 EA 2B
 C3 CE 5E 94 DF 9A 5A 14 24 D0 E4 E8 D9 2B DF 09
 E2 44 63 6E 21 D5 C3 09 BE 57 A3 15 B6 F7 02 6A
 2B 39 8B 05 AF AB 99 14 53 42 20 81 7F 0E A2 BB
 BF A9 E7 62 54 F9 D6 27 FF 49 B7 AA 81 14 0A 3F
 D9 AF 87 09 33 51 CC 97 19 8D 08 58 48 70 C1 A7
 4D 80 93 97 4A 4E F3 12 34 83 C9 F4 B9 6D F3 F1
 B4 0F B2 D2 53 D5 70 25 8E F4 E2 5B 05 A4 1E 5D
 5A 81 24 45 69 8F F4 F1 A8 97 01 D4 4D 42 A6 8B
 0C 87 9C E9 13 68 88 65 F1 94 7B 83 EC 50 ED 8E
 DD D3 BB E2 7A 4F 94 15 9F 61 99 B0 FD DB 07 E4
 F9 9C 8E B9 68 7E 05 5D 44 16 0B F1 BA B2 F1 1F
 32 10 E6 EA DF 36 E7 0A 0A 61 C4 63 00 81 79 2C
 61 DD 3B AB F8 02 6A 2F 36 B7 61 53 A1 DD F9 A0
 12 C5 56 28 0C 6F E5 02 B3 D6 CA 6E 33 96 FB 86
 CC 15 6C 25 F3 D6 F8 93 D0 CB FA 4E 61 34 11 70
 EC 0D 56 36 53 80 79 35 62 83 6C 06 E7 A4 E3 6B
 EC FB 54 29 C3 58 7A 8A 8E 3A 38 AA 45 F5 AF 22
 0A 2F 48 22 29 3D 13 53 E6 7F 27 70 EE 4A DA 9F
 E9 0A C9 5F EC 18 B0 26 68 7F D3 FD 61 F0 64 2F
 4B 7C 94 0C 57 01 DD B2 76 A0 F5 08 3F 8C AB D4
 6D 33 2E 47 D2 69 A0 BC BB 84 DC 8D A2 FC 02 BE
 89 63 EA 5C 16 A6 16 CA 5A CB D5 3F F2 C3 37 BA
 6D AB E8 F7 4A 66 2E 56 36 E4 9E 94 E7 DB 05 03
 88 21 5C 82 15 EA 08 E0 BD 74 C2 AC 32 1E 82 3B
 79 80 58 BD 74 D9 DA 82 65 9B 50 A3 09 22 D3 AE
 93 D9 6F 9B 75 10 90 26 D6 C7 4F DF CF F4 AB 5C
 6C E9 F7 E7 1D 22 2C C4 4C 03 10 FE 39 FC B2 6F
 4A 1D 9D 69 5C 57 9F 7B B9 B2 4E E3 1F 2F 85 BD
 78 E7 B3 A3 F2 04 B3 CB AB C1 0D 62 82 98 94 09
 98 40 F8 58 0C 96 CE 32 83 92 C6 C7 2D 95 A9 E3
 71 9B E3 A9 71 E0 C5 55 78 C4 63 3F CB 97 DB 2F
 8D DB 81 08 1E 30 A8 55 B1 8E 50 B5 B4 8B 25 A1
 21 D4 7C 87 EA EF E2 FD 44 3C 46 13 6C BB F6 9E
 D9 21 99 CE 40 53 21 09 57 7E 5D 72 FA 53 C7 EF
 08 4D 87 A8 46 44 B5 4B 52 48 F8 4A E0 FA CE 8F
 19 F2 8B 9A 98 8A F1 B3 5C 34 E5 B5 E8 37 25 8C
 4B 1B E6 DE 2B DC 74 03 EA C9 78 81 4A 12 25 0B
 FB 66 86 8F AF 1C BD 7F C4 82 20 CD 64 C3 B5 BB
 D0 21 39 F9 AB 9C 79 00 A2 4B E6 45 1A 98 CA EB
 D9 40 0F 70 79 7D E2 67 3C 7C 03 04 7E 54 F0 69
 C1 FD 12 E2 24 68 37 CA 17 81 38 20 59 D5 96 06
 58 1C 8D 97 89 6B EC 76 10 52 B2 F5 72 49 87 24
 37 69 54 91 9F D5 30 9C 78 FE 16 E5 F9 11 5D 52
 2E 6D DA 8F E7 EB BE 4D 02 6C F5 2A C3 41 CA E7
 60 D9 95 6F F9 2D 56 7D 2A C6 F2 04 F8 35 87 DE
 D5 2E 92 76 70 96 C8 DE 13 DD 58 E8 C5 DC 23 5E
 5C C2 DC 68 78 44 A9 3A D2 21 29 8F F1 F7 1C 0D
 0F 44 66 AF BC 88 61 33 07 DD 75 DC 85 D5 C4 AC
 21 2F CE 54 60 DB 0D BA 36 50 FB 3C D8 C3 B9 D5
 EB 04 A6 48 E6 D0 4E 80 CE 33 47 CB FD 19 92 55
 A1 65 DD 82 DA 6E A5 DC 79 B0 4A 6B ED E2 DE A7
 55 BC 6D 4A A5 3D 9A 4E 0F B5 43 F0 53 A4 F3 ED
 38 C9 24 48 C1 95 B5 F2 A3 D8 51 D4 47 F8 8E F8
 28 32 E6 09 40 1A 63 8F A4 FF 5F 50 22 F6 0D F2
 30 0A 91 11 4E 5E 5C 08 29 F3 A6 F8 EA 11 E9 0B
 22 F8 ED D5 DA 2E 56 BB A7 BE B3 FD 62 F4 A9 62
 F8 D4 B5 13 3B D1 B4 CE 20 F1 39 A0 13 51 FA 59
 54 05 E1 53 6C 02 CB 7E EB 49 C2 9F 70 C4 E8 13
 51 01 CB 57 6E 45 C2 84 A4 E4 7A D5 3A C6 EA D6
 CB 44 9B C2 77 2D 58 B7 D1 67 15 F9 86 E6 5B 05
 A7 14 8B E3 93 93 37 98 AA C3 0F A0 34 54 42 60
 7C 8C C3 F6 EC 8F 26 0B BB 7B 8F 52 9F 7E 5B 2A
 EB DB DC 06 3D CC 80 AE 1D A4 04 2D 69 DD CA 81
 B0 E7 84 2F 54 3E 12 29 CE 95 07 71 3D B9 FD CA
 83 0D 92 2B 7E A7 40 64 A5 AF 78 EF 47 35 89 3F
 73 B2 D8 9F C0 D6 C0 D8 A3 DF F6 37 4D 1D 6F 03
 D5 58 96 31 56 6A 1F 6E 3E BC E7 09 69 6E 1D 5B
 98 5F 05 1C F4 BF AB C1 5D 26 A8 10 34 3E C4 33
 CF F7 28 0A 3F D0 FA 21 8C 41 25 8C BE AE 52 AC
 47 78 40 F9 69 36 42 E4 05 8C 22 D8 3D 04 79 5C
 BC 44 0B 0B 73 61 49 3C FA F2 6A 50 81 B0 B8 7B
 D2 F5 8F D1 53 FE A5 6A 50 28 A7 2C BA 57 40 EF
 73 2D 85 9C 8C FF F6 13 26 78 13 46 08 70 5E 3A
 AF F3 2F 67 6D 0F 9A 6D 96 CA D0 B1 89 EA 9F C0
 9D 9E EF F6 41 8C F3 B1 76 55 D2 2B C8 A9 AC 8E
 0A D7 23 EC 23 37 E8 0F 05 3D 96 6C 13 33 22 B5
 DA C7 84 3A 53 78 8B 4F 2D AC A3 E0 3E 4C F3 CD
 69 EB 2F B1 80 6C 62 94 3A 73 31 25 16 78 7F 30
 31 50 FE 4D 95 87 89 4E 99 F3 D2 7D 54 65 24 AE
 34 EB 80 2F AE 69 24 52 55 D1 54 7A A6 73 39 5F
 61 C5 1C 03 3D 8C 51 75 F0 A8 14 AC 88 D3 7C 90
 E7 12 57 19 E3 CD 25 45 1D 78 49 C5 53 1B CB A9
 8E 5B 05 13 B4 F9 F4 9C A3 59 57 9D 39 AF C3 E5
 B9 0A F9 E4 7C 75 C0 35 B4 3F BA 4E C4 D8 9C 2C
 01 38 9E 40 79 F0 19 F5 2E 29 D5 C1 0E 21 81 F0
 DA 86 E2 F8 D5 4B 89 47 06 5A 05 0D B3 7D EE F9
 D1 AA 32 37 D3 9D 1C 9D 5A D6 67 E5 51 7A 89 5E
 FB C9 99 AC E5 55 49 ED 1C 14 1F EC 41 42 B7 F4
 08 14 E1 1C 01 8B 5E 12 6E 03 B7 38 3F 0A B9 BC
 ED F2 AE 84 34 CF E9 15 0A AD C7 9E A2 DF 49 52
 06 72 0C 6F 0C 4D E8 37 3F 07 F9 60 30 BE 57 79
 FD A7 C8 AA 1D 67 A4 B0 CA A5 34 5E 72 A4 C2 04
 EF 4F 25 6F 43 06 FF 4F C6 44 97 AB F4 D6 20 96
 31 80 8A CD F6 2B C3 92 45 59 55 9A 31 E1 C5 38
 AB DE D0 E0 FD 89 DF 2C 3E F2 6B 6E B8 3C 1E 39
 12 79 52 44 35 47 A0 22 AD 34 F1 09 F8 C0 A7 80
 94 70 82 F2 07 0D BF 3F 8F FD 03 2B 43 99 6B D7
 D9 58 78 B7 9E 19 3B F4 D3 2D 90 D8 2D 8C 2D 09
 94 EE 30 5D 24 3E 16 3C 9E E6 FD CA 8C A1 C0 04
 3F 88 F0 5C 84 F1 AD FA 6D E2 70 74 24 BB E3 D9
 78 F1 BB 49 25 2F 6B A8 93 D6 66 1E 49 DB 07 1D
 22 D0 17 DB C0 C2 1F 1E 19 D6 CD 33 9C FD 4A F0
 28 3B 6A 44 9D CC B1 F0 92 75 43 DF 43 BB A5 CF
 82 D4 EF 18 64 8C FF EE 0A 19 78 F1 C9 41 5F 40
 F4 41 8B 10 EC F7 A4 02 BF 20 F4 E1 06 A8 96 1A
 E5 AA CF B4 B4 9C E0 26 02 E6 99 4B 94 C3 E7 C7
 43 43 F0 F4 AD 7D 91 86 64 B6 5D 73 11 B0 91 33
 09 26 40 EB 10 9F 50 FF 56 25 B9 F5 37 74 DC C0
 03 66 38 E3 DA B8 81 FD 6C 24 14 79 DC A5 06 E9
 97 01 33 39 B5 61 EC AA 48 38 3F F6 F6 94 ED D1
 8F A0 7C 02 B7 14 AF EE 8B C7 CD 4B 43 32 9E 19
 00 60 53 FF 6E 9D 47 5E B2 D4 53 F5 61 2B C1 C6
 8A B7 DC 78 8A 65 1B DE DE 1E C5 05 DC FB 54 A4
 C1 2F 50 3C 02 4F 5C F7 64 B2 D4 00 01 4E 1C 7E
 AA C0 FC A5 B9 EB BE 6A 6B D0 87 04 17 02 FF D1
 99 04 32 CC 59 71 7F C8 39 21 78 FA 36 20 CE 10
 99 01 D2 F5 03 1A EA E1 FD 51 58 E9 17 ED F0 2F
 B6 29 C3 85 F6 89 0E 55 0E 8A AC 8D 10 90 B2 05
 CE 92 B6 AB 3B 09 E4 32 ED AA 0E 00 45 13 98 DC
 C8 B2 C9 FC FA C0 16 1F 01 36 2B 3D D3 E0 30 FC
 B6 40 33 4E AF E8 64 64 27 CF 07 36 DE 70 37 BB
 32 A1 4D 7B BC AE 87 86 E7 9E 6F 9D 5F 5E 77 F0
 C7 4C D4 D9 53 A3 0A 4D 50 A8 8A D4 A3 47 2C E5
 BD 2B 39 F5 F1 68 4C 7D B1 9A 5A 96 EB 3F 0A C6
 81 1B 46 65 A3 54 0E 7E C8 7D 71 03 0D C5 55 81
 C9 AC A6 E6 30 C5 5C 00 97 EA 99 5E 9C 19 E1 F4
 40 E1 35 7F EB 1E A6 79 1B E6 12 1D 92 8F AA 39
 EA C1 BB D0 3B D6 BA E4 A5 6A F2 A5 E1 42 BD FC
 1D FB 49 51 8E 39 5A B3 6E F5 D7 F1 A8 EB AC B0
 60 B7 03 A8 A2 A7 74 B8 B7 2A 00 55 FD 1C 0B B0
 45 AA D8 32 F5 C4 A1 04 FA 1F 8E 8E BF 2D E2 19
 69 1A AD 82 56 7A AB D8 98 AB D3 E2 F8 43 DE F5
 ED EB 52 BE 3B 72 86 D4 AB BE 20 61 07 D6 B7 7F
 85 01 BF 27 71 A1 D4 B9 30 A5 8E B0 2A 59 FF F9
 BF 8B 84 AD 5C 96 93 5C 27 E5 47 69 62 1A 48 17
 A1 AF 8E 9F 8F A2 30 1C 5A 4B 1F 80 E3 F5 B6 18
 92 08 70 56 09 12 23 9C D3 E3 71 66 1A 69 9B 74
 53 9E AF D2 89 0E D6 FC 14 E5 35 36 EC 38 A2 37
 E4 64 0E 27 CD 37 44 13 90 33 DC 25 70 0A 0F E7
 8F 4C 7D 46 8C 33 43 D5 98 C1 EC 06 8B 07 D7 6D
 39 C1 95 CD 25 36 40 D0 95 30 42 B1 02 D5 C3 B3
 E5 36 07 A7 8D 5B 24 61 13 53 4E C0 5C 9A DF F5
 3C 88 50 40 75 C6 D4 E2 87 83 3E A5 65 0C CF DF
 0D 39 BF 83 B7 80 7E 09 BA 35 9A 4C AC 54 D1 F2
 25 A4 7F 3F 35 97 35 DB 09 AB 4D 74 13 1A 35 B9
 94 D0 76 0C 3D 6B E3 3E F3 15 17 8E 6D 89 BE 16
 ED E6 6B F3 7D 37 B9 0B FE 68 A0 0F A5 C0 B3 DA
 D9 A7 CF FB C3 A7 B5 D7 A1 71 EC E8 66 4C 5F 66
 98 E6 50 7A 66 B6 23 DB 52 34 23 38 3A 49 9D B5
 1A 6A 1F 1E 14 F4 BE D7 0B 5D 4F 1D 2B D9 22 AD
 8B F0 0A BB 59 53 E4 57 63 CE BA 1B EF 38 91 B1
 20 E3 FB E4 4D 84 5F E3 68 64 A6 EF AA FB 8B AD
 C6 95 5D 50 14 FF F2 E2 9D 42 A7 B1 0F 59 8E 97
 30 1A 39 71 23 63 F0 98 F8 E6 C1 93 4D DD 06 06
 6C C9 3F D2 B8 09 81 A9 C6 66 D7 B7 B3 7D 47 0F
 BF 5D 1C A9 32 5A D0 4C 48 14 7E 37 E4 D4 8E 45
 CE B6 B1 52 B5 A6 A8 89 96 D7 27 E8 4D 89 FC B0
 69 C0 2B 93 C6 E2 BD E8 CC 1B AF 69 8B 73 EE FE
 51 4F 84 AA E9 F6 72 A1 62 BB 88 1B 2F 17 73 99
 03 DA 4E A3 A6 31 45 E6 C9 78 75 2A F0 36 64 28
 97 28 92 DF 1C 40 92 6A BF 07 24 4C 87 E9 E4 4C
 04 6F 9F 5D E1 01 1A F2 1A 44 7E 54 4A 95 AF 52
 95 08 E8 69 B2 58 C1 22 18 6C 61 C3 39 0E C1 F7
 C3 5F 69 5F 37 DD 89 32 F3 C0 8D D6 22 90 9E 17
 E1 65 43 72 EC A6 E8 A1 2E 2B 2E 41 2A 6F 98 67
 97 9D A0 C6 B4 DD C7 DE E5 1F 7D 04 82 68 E1 A0
 C3 4B 12 4F 76 AB 30 32 3E 03 31 60 47 20 82 F1
 FE 75 E7 C8 0C DF 61 29 19 0C 43 F7 5A 53 02 CB
 33 D6 86 6A A2 AF 5A 8C 1A 7F 39 9A 4B 93 F3 E6
 53 44 C6 72 7F C3 2C 32 A3 04 69 64 D3 96 42 25
 D7 F0 BC 58 6D E9 F8 05 D5 62 D4 33 BF 2E 15 D5
 3B 7F CB 01 C9 56 7C B6 8B 07 D2 EA 07 7F 6B EE
 56 FC F2 04 3B 26 26 14 F6 4D 78 6A B9 07 89 7F
 59 1F 15 18 BA 29 C4 22 80 0D B7 3C CE B9 44 7E
 DC A0 6B 5F 87 40 EA 51 FA D5 BE CB 44 E1 62 33
 0D AA 0F 3F D3 10 5D BB EC 19 EA E0 37 FF E2 32
 95 26 75 6F B7 95 49 FB 16 89 78 F8 B1 4B FC 51
 2F 26 95 E2 D0 86 17 CA CD 5C 03 6C ED D2 0E F2
 72 C0 81 57 AF 24 89 41 9B 15 C5 5E 7D E2 7D 4C
 46 A6 18 D2 58 AB 85 7C 61 92 C7 BB EF 48 86 B8
 2A 2B 26 66 44 A2 32 72 29 9C D5 EF 28 86 CF 3C
 0D BC 3E 60 40 17 EF 71 3A D9 24 6D FF 2B 04 67
 0F 65 C9 43 CB D7 98 EB 2B 9B 0B CE 10 D9 EA 07
 19 DE FF 6F E9 8D 79 2E 93 67 79 7C 44 AE 80 3A
 DC AD AD 2A B9 F3 6C 33 5F 17 46 CB EC 02 52 C2
 95 AB 64 78 D8 FD 47 4F 0C FA 25 D6 D6 5B DC DD
 15 B5 24 D8 2B 42 C4 DD E3 41 59 65 04 83 B3 BC
 B5 6D C3 62 DD 03 AB 2D C5 A5 E7 07 18 70 A7 DD
 D2 74 F5 73 D2 71 D7 75 FA A6 6B 82 15 A6 F8 EE
 D8 BF FA 6B B0 F1 80 F5 7E AD 49 61 59 C0 86 9F
 99 15 1C 58 F4 0B 2E 66 9C 9C 3B BD 1A 14 0C 13
 7C F7 D3 C8 ED E1 22 FB 85 A8 36 FE 67 7C D4 5F
 91 28 B5 28 BB 4F 46 01 B1 7E FD 42 71 77 4F 69
 CC 26 31 46 23 1E 4D 39 DD 68 27 2F 17 EF 88 C1
 13 06 72 35 11 3E 1C 0F B5 7E 08 36 0D 6B 97 2E
 18 D9 A8 D4 83 3E 96 B3 23 99 36 F8 A5 1A C3 FE
 BF BA 08 F7 B4 13 A1 C7 2C 28 D0 B1 FC 08 1D DE
 38 2B 51 97 E6 6F 90 73 35 62 72 AE BB 31 52 74
 54 16 D1 EA BF 04 D6 99 B3 F5 44 85 28 BF FA F8
 F5 1B 17 F9 8F 66 1E 26 15 CE DD 5E 0C 68 9E 5B
 0F AD 8C 1A 45 A9 87 8F EB 31 6B E9 CF EF 1F CB
 7C 01 FE BD 91 AE E6 FE AC 0C 32 E7 C2 16 9B 74
 42 1F 25 02 9F FF 18 C8 0D 44 E4 14 C6 D1 7C 11
 0D AD C3 DC 0A 56 A8 D8 95 02 3A 79 77 36 F3 79
 94 9F 2F D0 3E 71 C2 2A FC 7B 8C DB 6E FD 9C 29
 BC 34 7C FF DD A8 FE 25 06 18 85 20 03 EC 8B E7
 AE 3B 19 5A 56 FA 36 97 8A 1D 0F 0E 9E 27 E8 C7
 9A E1 3A FF 78 88 74 06 39 4C 75 79 59 05 9C 04
 75 85 DC 44 03 6E AB 19 ED BB 45 6A B2 81 DA 6E
 1D A0 EE CD 2C 6F A1 73 FE 90 6E D2 99 A7 34 BC
 1C D5 F0 BE 5E 59 EC 2B 54 FE 52 2C 9B EE 6B DA
 E9 7B B0 95 B2 C3 D0 B2 87 46 45 C0 DA 9D D8 E5
 FD 06 49 70 A3 2C 69 24 D7 8A 7E B6 B7 48 75 87
 EC 19 7A 69 D2 CE 19 F3 3A EC 57 2E 85 F6 A7 9D
 9C E5 BC 80 09 06 F2 0E 9D 0F 7A 8F 83 C5 4D 2B
 E4 A6 7A 0F F0 34 FD 3F 86 8E 60 EA 11 DD 7C 88
 0E AC DD 01 9C 9F 98 77 8E 4E 8E 15 5C 03 04 D4
 00 F5 01 B5 46 36 DF 05 CA 24 03 C3 0E 39 9B 24
 0E 95 7E C7 C9 3A 67 60 42 3D 1D 89 3C B8 8B 13
 58 5F BF 71 E6 43 C6 A3 71 AE 22 7B 83 50 DE 35
 04 EA EE 36 9D 07 49 67 A2 29 B9 50 DE 8B 11 F7
 7A 1A 37 5A A2 D2 C1 7A ED B3 26 F0 9D E1 B1 AE
 A6 D2 BD 29 23 EB F9 B2 34 DB A4 2C FC F0 E3 5F
 F7 0F 28 29 F4 5E B8 66 E4 51 93 5E FB A8 80 59
 B1 8E E5 77 88 33 A8 B5 CB C1 59 7F EF E7 66 F9
 4F E3 84 7B 90 39 04 1C 19 B2 57 BE 0A 66 2B 0C
 89 8C CB 5A 38 03 E3 CE FC 09 E6 9E 00 F6 62 71
 37 C0 AC 3C 02 B6 E2 30 A2 14 DF C3 62 F9 22 1C
 DE C7 FC 98 01 FF C9 E9 C9 71 6D F8 40 B4 A3 5B
 52 06 2D CE 84 E5 4D 0B 92 8C 57 8E 1C A9 D8 5E
 FC 02 30 6A D2 44 2E 03 04 9C 4B 84 B2 D4 86 BD
 A1 0C F7 6E 20 0C 1C 41 32 C2 75 61 CD F6 9C 68
 D1 74 5D 2F A2 D8 6D 1B CA 93 77 87 DB A5 A6 9F
 10 FF 04 56 38 1F 2A A6 9D F6 B5 7F 3E 53 37 53
 B8 0A 78 E5 F4 57 C5 94 0C 33 0D E9 FA D7 57 59
 C7 CB 81 23 E2 DB DC AE 21 2E 52 89 83 6B CF 05
 B5 77 07 87 BA 8F F7 CD 09 D1 F3 80 5D 39 BB 08
 13 EC 93 95 8B 4D 7E E1 BE B4 EE DA 3A C4 69 8B
 46 F8 A0 4C 1F 6B 24 36 07 24 FF D5 FC 1F F6 A9
 7F D0 28 43 B4 48 15 6F DD 1D CA D6 8A 27 E6 7B
 E5 7C 7C F5 6C 18 2D 3F 41 40 51 F6 58 F7 09 04
 85 CB 19 D9 07 92 EB D6 78 40 D8 40 6C 46 28 3C
 ED 36 86 97 BF C6 60 94 64 F9 42 B2 CC 4A B6 15
 56 5E CE 2F 43 17 69 E8 A7 74 47 3D 49 60 0E 28
 C1 ED 90 64 18 E4 D5 EE 0F C1 D5 17 39 06 C2 8D
 91 D8 AB B1 F1 4B C4 59 72 24 E0 83 C3 86 B4 24
 5E F1 9C 7D 5B 38 D2 7F 7D D2 00 01 1A 41 5D 47
 50 5C 31 D5 42 4A BD 0F CB 2E 2A 45 0C FD F8 A1
 E2 56 8B E4 37 D4 2F C8 3B DB 99 79 39 1F 2E 52
 EA 09 F5 40 5D 42 72 09 54 05 07 55 06 1C D6 1C
 4A 69 E3 53 51 A3 84 69 80 BD EA 11 3B A4 96 ED
 40 98 E6 F3 29 0B 3C E7 EB CB 29 1A 1E 88 DA FD
 41 66 F7 81 42 4C 01 7E A2 9C C1 DF F0 D8 EE 68
 DE 88 D1 CD 4D FF C4 C8 2C 12 17 F1 41 40 93 71
 E1 0C 3C 86 98 51 F4 94 25 13 CB 7F 38 53 82 15
 32 F1 8F 77 CE 89 41 E1 60 D4 A9 5A 34 1A 78 7C
 ED 83 BB E5 D9 F5 1C 78 3E A3 CD A2 A9 1C 70 9F
 BB 59 6D FD E5 F7 34 55 9D 18 68 23 CB F1 97 CD
 6B 5E 5A EA 74 A7 0D 37 97 0F F1 2B 88 D8 4B E7
 7F 9B 7D 60 02 48 13 6D 1F 0D 11 9E 4C 85 8C 93
 99 BE 0A EF F6 6E 36 1B 29 1B 41 5B 35 C7 5C 54
 1D B1 DF FB 3B 44 E9 F6 09 C8 2B 1D E6 9C BE B1
 6C B5 C7 D5 2D DB 75 B4 AC 75 91 DB 5F 38 CB 68
 95 11 D9 EE F0 00 C0 F6 69 F6 6A 5F C5 13 FD 6F
 54 27 F2 DE A7 AE 22 41 F1 BE D2 59 1F A4 91 3F
 37 9D 5F 61 77 F2 EE 07 5F 5C 2A D3 CF 92 99 E2
 B7 96 D4 59 2C 75 9A B9 47 FA 55 FB 3B 9A CB FA
 19 97 BC 90 AB 8B 98 1E 2E 4D EB 9B EA 84 D8 77
 2D 0E 42 41 56 7E 0E D9 1A 88 43 B6 23 35 0A EC
 D6 DA 0D 73 AA C8 F9 EF 9D 4F D7 5A 62 08 16 7C
 6A 20 C0 3D A6 1D 5D B6 8C B6 0F D3 17 29 8C 13
 20 91 DF B6 7F BB A7 36 C9 7F 4E FA 06 CC FF 59
 C4 98 18 B1 BB 45 3D A2 DD 67 16 81 5C 03 22 25
 1E 90 C9 85 50 AC 05 5D 06 36 E0 EE 26 40 CD C2
 D5 DF A0 28 A5 5E 30 84 15 A6 81 85 96 EA 7B 12
 1A AC 9F 6D 0F 64 65 13 69 66 50 1A EE 13 38 1E
 E0 83 F2 5C 5C D2 7A 5E 89 34 38 CB 76 2B E3 C6
 30 C5 D1 31 EE 42 0A 65 8B 26 4F BB 3F 49 64 CB
 0A 9A 93 85 DD 9A D7 FE CA 1A 15 D2 DD 5F 46 5E
 F0 DB 8D 74 04 84 6D D2 D2 D1 43 DA F2 47 E9 5B
 33 DD 20 CF CF E4 81 57 89 00 F4 FB C8 F2 B1 6B
 7B 92 55 D5 E6 E8 7E C0 F9 E6 57 B2 F4 B3 C5 F2
 77 BC CA 3E AC AD 5C 01 50 63 C2 C6 90 69 CA 40
 A2 81 D5 45 48 EF 9B 11 9F DD 7C FA 14 4D 71 B7
 C4 62 8B AD 33 0B 67 CF AD BC 85 BD 98 B9 9B B6
 A7 1C F1 57 92 34 30 79 33 97 B2 9D 6B 3B 43 A4
 D9 69 2A 01 E5 95 2C 77 3D 80 2B 1E 1C 18 E2 CC
 B3 7E 5E E3 C9 35 B0 D1 39 90 9E D1 48 35 CC 03
 D7 C6 8C 23 E5 A5 6F 2D 3B 45 A6 9B BE A4 0D E9
 DB A7 7B A8 F5 68 E7 EA 9B 25 AD B2 FB 49 71 BC
 C7 E4 33 7B 26 EF DC D7 9A 5D 01 5E E0 ED E5 6D
 93 29 36 87 5D 84 A1 5B D6 EC 42 8E 6A 0C B9 8E
 2D B4 E8 3A D5 06 2C DF 5C 98 30 91 D0 42 62 09
 0A 7A AB DC 88 76 29 60 01 C1 4E 3B B0 60 B6 2E
 AF 17 4A C7 2B FB 66 3F 59 91 88 06 AB 2F 0E C1
 45 D7 16 F5 37 49 E5 4B C0 29 A4 D9 53 33 C7 F2
 7D 35 F5 7C CA B2 44 B3 0F 8D 1E B6 FE 9B 74 FA
 E9 C7 5B FE D3 FB 66 E1 57 02 9C 91 77 97 1D DB
 AD A8 AC B3 9F 08 0F D6 E2 02 5D 2E 94 56 FB 4B
 2E FD B9 22 82 F0 F8 CE 6A 4A 8E 27 F2 2D 7E 0D
 48 E2 70 2B FE EE C1 6D 33 2E A6 39 7B 85 74 D2
 C3 75 C7 A5 E6 5B 1D B0 47 B5 2C 0E E9 10 6C C2
 25 B4 10 B6 5B 92 A1 17 91 01 A0 BE 95 E4 6D 9D
 8E D7 FE 98 34 0E AE CB 4F C3 8A 53 31 C9 14 01
 D0 1E E7 64 97 79 FC E5 FB 0E BC 1B 35 44 1B 39
 EC 3B 79 E0 0B A5 7D 5C AC 42 5E 9F CB 20 F9 BF
 DF 4A 91 D6 D9 80 BF B7 71 11 32 4A 72 A9 1A A8
 11 7E C6 A6 F3 14 91 F0 69 35 99 00 00 BB 49 E3
 E2 7D 04 84 98 D8 DE 64 F7 FC F9 0E 95 12 6D 52
 C7 8A C3 6F 4F 61 68 7D 34 0A 5E 30 A2 7F DD D7
 8D 82 62 03 0A 85 EA EF 76 20 83 18 8C C6 D8 DA
 C2 A8 D1 47 D6 C1 75 AC D1 B1 A9 C3 F9 1F F0 21
 19 38 57 37 32 1E 8D B0 7D E5 54 CB 71 4C C1 C8
 05 FB 76 A1 72 23 E9 FA D5 AA BC 6B 69 98 5A BB
 5D A9 65 DA CF E9 3B AE A2 6D BC F2 44 37 1B DC
 14 BE 53 B7 53 27 1C 23 5D FC 45 9B E3 85 C8 F2
 99 16 E7 A0 FE 5F 0F EE FC 80 D1 3B F4 71 C9 3D
 26 D9 F5 8D 5E D1 63 47 5E 60 DF 16 EA 99 D0 06
 91 88 58 2A 7D 1F 8C B3 81 11 36 06 9A 11 29 07
 89 2D 4E 5D A8 F0 79 2F BD A2 CA EE 7A 60 A3 BB
 EF 8C A0 79 D5 1E 3C 2C 22 EA 15 ED AC F5 ED D4
 5F 83 4E C3 2D 93 40 52 60 A9 31 DB 2B 7E EB 60
 6B AF 96 24 47 22 89 3F AD 6D 1C AA B8 F8 D9 0C
 55 CE 58 49 76 1C 1B 1F 61 43 38 51 09 03 A9 74
 22 F4 5E 3F DE 18 1F 8F 0B 34 D8 5D EE DE 11 ED
 F0 7F E4 B7 F5 41 9B 74 02 E7 0C 37 E1 BF 70 18
 28 F9 A9 07 E3 C5 D6 DB E3 63 BC 4F 50 4C 41 B7
 5C 93 99 F2 22 B5 93 9E 3C 76 15 56 DD 48 37 0C
 75 3F D1 6F F3 0A 84 7A 2D E0 C0 DE D9 D4 62 E7
 05 0B B5 66 52 FE 3A 88 99 90 D2 6D DD 09 27 51
 05 1D CB 14 41 35 83 A7 32 27 06 42 27 BE 1B 31
 78 E0 8D DE C7 E0 3A 83 A8 AD 59 4D 48 D4 90 B8
 FD 0E 4E 2B 7C BC 68 78 90 3C 80 50 D6 B2 B2 02
 EC 30 38 5D DE 8C 60 37 3A F3 F6 9E 2E 77 C4 4E
 DA 52 76 7B 14 07 C5 20 2D B4 D3 A7 57 FD C3 D9
 14 E0 FD 87 C5 76 B1 47 6A A2 AD 8E 34 61 A3 96
 2A 5E 5C 88 8F 9F 5A 2E 09 CD 4B EB 39 77 E8 CB
 7E 79 F3 52 FE AC 34 D4 66 49 A1 65 90 04 15 86
 88 A6 89 3C C3 E1 11 82 77 3C C6 EA 1D 07 36 C6
 CB 13 44 B5 D2 0A EA B7 00 8B 15 36 FC 92 6A D2
 2A 4E 98 AF A8 07 81 90 84 76 8C 69 8D 21 B7 9C
 A5 FC A9 71 DB 58 5A E7 30 9C 73 5E C3 43 A1 5B
 EA CA A4 39 82 32 2D AF 1A 24 60 69 8B FF 7F A1
 09 59 31 6D 38 57 70 58 16 9A 6B 08 1D DF D9 C8
 F1 BB 4D EB 07 0F B9 7E C0 D8 45 D7 F7 94 1D 6F
 35 0B 6C A9 04 6F CB 0F 1E BC AC A4 47 78 41 25
 52 79 EC 41 08 CB A9 CB 0D 15 42 C1 A1 EB CB D7
 3D 5E DE 16 B1 CB 2C 97 12 45 C9 6C 12 4A 82 EE
 5D 04 B5 82 E6 B1 5E 99 A3 F2 58 2A 4C C8 5D 54
 EB 8F 12 DD CD DE BC 5A 20 43 3D 3B FA E4 59 C4
 D4 B0 1D 30 49 3E EF 7D D3 47 89 E4 16 E3 18 40
 7C 8D 65 13 D3 74 D5 80 C7 03 28 83 65 22 16 09
 37 5D DF AF E3 D8 83 4C 2E 06 36 66 24 B3 1B A2
 14 3A CB FA CB 68 E5 CC 05 5E 14 3E 89 E6 1C CB
 9F 8C 7D C2 14 7F D0 BE D0 5E 28 B8 A0 B6 6F 06
 02 82 A5 AC 8C 52 22 58 A9 59 54 1A 99 02 7A A1
 61 FB 6F 1F 7A 6E B3 EB 44 30 B6 E6 78 1A 64 DF
 C0 94 43 A0 DB 50 F8 77 FA 1D 3A 76 21 5B C0 5A
 F2 7A C4 5F 1E 1F 61 BE E4 AE D2 60 FB 46 70 43
 AA 07 13 E1 57 0D DF 2B 2F 98 C4 9D 74 60 62 FA
 95 33 B6 3F 3C 79 5E BB 8D 88 76 A3 5B F8 38 EC
 A9 0B 2E 80 20 4A 25 53 5B F2 0C BD 67 69 9D E1
 46 E8 38 F1 3C 13 6A A4 57 CC FF A0 EF 4D 50 1B
 09 EC 97 E7 D1 37 4B D5 AD CF D4 5F F5 21 F8 21
 A5 6A 80 6B D8 94 62 B0 7A 5C 85 9E 84 BE 1A 81
 50 B4 F3 AD 48 15 B0 53 7B 9D F4 C5 AB 64 F6 63
 CC 89 AF 41 7A A3 9B 60 E5 17 F1 C5 3E B3 50 01
 2F 99 FA 29 99 00 99 62 9F 00 B9 CD 9B 08 27 2C
 50 B1 E8 7C 05 CC 64 63 BF 5A DF 6C 65 3B FD 6A
 BB 1B B1 90 8A EF 1D E5 29 F4 98 F0 55 2B B3 67
 C4 9F 29 9E 1E 61 B4 A6 1C 95 94 BC 8C 62 D7 67
 7F 86 E7 7B E9 94 71 3D 58 86 3E 44 9A 08 25 44
 69 5C 8A E1 F1 5C 6A 34 35 AA AF 26 54 8D A5 A8
 FF AA A6 8E 5B C8 A1 9E 2D 8E 15 DB 60 26 6A 62
 E1 7F EC 42 18 0D 61 EC 13 41 2B A8 8E 77 BF 9C
 83 8C 19 2B F1 C2 37 DB 88 B7 61 CF A0 E4 7D 47
 4A EC 1B 67 A9 F9 39 85 DA 34 7E FF 47 CA 74 78
 1F A7 54 9E D1 CC 94 16 59 7E B6 7C A5 C4 10 FD
 B1 78 BE 0D EF 82 C7 A0 62 2A CE D5 95 23 A3 12
 35 1B CA B4 D4 A1 92 0C 0F 83 27 0D C9 87 6E 1D
 E0 BC 21 08 ED BF 61 14 A3 95 D1 D1 A1 60 AA 3A
 83 0C 08 38 2F 8A CF CB CB 7B 65 A2 9B B0 7A 63
 10 58 BA 33 D2 9C 87 D5 0D F2 0D 9D C7 A2 2E 8F
 09 06 31 56 0C FF 30 5B 82 E8 9C F2 E8 59 A0 90
 6A 6E 70 B7 76 5F 9A 70 87 BE 9D 5D 3F CA 4F B6
 2F 1E ED 9C 00 73 5F 0D C2 1A EC B9 5D EC BE 5D
 1A BF 2F 07 B0 5A 6E 1C 13 E6 20 47 92 8C BC 98
 0D 62 21 44 0D 73 C4 E1 8B 32 2E 3B CF 80 C4 95
 B6 5B 0C D6 C2 48 91 2E 6E C5 94 A2 39 7B BB 2A
 2B 2C 48 9A 62 32 4F A2 9A A5 9D E6 06 3D B4 18
 AA B4 26 1D 07 5C 89 99 BF 04 58 C3 69 2F 0E 0E
 4D B3 1B 9A 8D 64 8B 4B EE B2 4F F1 19 2D 3E AB
 0C 00 EF E4 98 66 C6 87 61 B2 34 10 C7 CF AB 26
 17 69 95 46 6D 6D 75 A6 D6 F9 59 9B 15 35 6B DF
 0F 8A AE 40 69 9C F1 9D CA 8B F9 45 7D 99 61 BD
 22 9C 2A 15 58 6D 8E 8E 1F 66 72 D0 37 E3 68 3E
 5B 20 C8 02 85 63 23 4D B2 52 46 5A 8D 54 29 1A
 18 EB 62 0A 48 C2 0A DF DC 2A CB D3 44 36 9B 42
 53 CF F6 9B CE 57 F1 32 E5 23 47 7D 54 74 A2 85
 E7 8B BE 1B B7 EF 70 43 CC CA 35 83 A2 2C 29 8F
 C5 5A E0 03 06 A7 9A FB DA D5 75 2E E0 59 33 AD
 A0 5C 42 2B 6F A8 4B 4A D9 B8 B6 86 16 DA D5 DA
 D4 E2 DA AD 7F EC 1B F3 7F 46 39 B7 AB 51 0C 86
 7F D9 08 03 17 02 21 B9 11 36 42 3D 64 F7 0F 02
 5F 15 9E 05 D3 A6 24 8F A9 9E 4D 22 22 F6 2A E4
 0D 22 B1 7D 7E 45 86 02 9E 0C 38 E6 0C 34 FF 25
 8E 1C E6 22 BF CA 27 96 FC B4 37 19 4E E8 B1 5E
 50 94 C2 0C 06 DC 7C 87 06 B2 8D 52 2E B5 07 8E
 FC 32 8B C1 F6 15 7C E6 D9 3D 1A CF 74 8A A6 78
 6E 10 14 9E 2E 2F BB 7F AF 1A 24 B3 AB F2 F4 F5
 88 42 D7 2A F5 A1 58 5C CF 5A 2E 85 0D 5B 9F 8D
 44 81 DF 8C AF 2D A3 12 38 A6 13 99 4B 11 45 83
 F2 FC 54 D2 B6 EA 71 19 A0 FA 8E 55 FF 32 42 88
 4A 4A 7D B1 93 D6 75 BF 15 A1 29 E0 56 20 05 29
 BE FD CB 96 48 9C CD 0A 7D 5C 17 B3 AE 99 22 B7
 95 2B E6 1A 7B 6A F9 7D 66 8E 36 D0 89 53 8A 33
 FD 2D 1E 79 72 4D 52 6F 31 A1 3A 4A 42 BD C6 E1
 D7 50 90 52 B1 9E C3 C1 98 B0 59 5B 9E 71 DD 44
 7D 79 AD D7 4F 4E BC FB BF C5 34 75 5B DF AA 0E
 BE 26 48 A6 4E 62 9C 52 81 2E 3D 28 1A 17 EB D0
 A0 DC 7B 9F 2F 88 42 C0 AA 2A AB 33 5B 0D C7 C0
 71 E6 7B 77 EF 88 2C 81 C0 01 C9 93 B5 42 B6 51
 22 CB 53 CD 67 7F BB 1F E7 AC 0E D5 09 EA 54 C8
 EF DD 55 8D 0D E1 65 01 75 4D C3 B4 9D 02 B2 23
 EA 10 30 6F C1 80 FF 34 59 65 9F 59 28 67 0D 1B
 CD 82 85 A4 20 94 DA 00 37 19 3E 2E 31 BA 83 46
 FA 00 E7 83 35 45 8E 27 19 BC 22 1E AB B3 BA 27
 86 F8 5C 9B 14 13 E7 05 AD 8A E0 C5 8E A2 E1 64
 60 B2 87 E9 D8 BC DF F0 46 57 6F 08 E2 73 D0 4D
 EC 07 BF AB 99 DE 4A 42 68 0E E1 46 DF 3D CE 93
 A2 AE 9F 3F 2B 94 89 33 09 DD BA 4E 69 5D 7D E5
 16 D6 A5 C4 E3 1A 25 3A 18 2D AA 6A C7 A0 8A 1D
 B8 02 9A CF DD 85 D7 AC 4A 8B 4E 34 79 4D AE BC
 94 8E 82 60 99 93 F2 F0 F7 6D E3 80 F0 D6 98 16
 5D CF 12 03 A0 17 00 72 EA B4 2F C4 BC 00 0E 10
 A8 D9 ED 94 D3 EA 1C ED 05 92 97 5B E7 79 80 0B
 95 B2 C8 3D 2D E3 B8 62 BA 30 26 C4 27 00 C3 B6
 51 3B 7A D6 93 E2 8B 25 59 5E C0 3E 2E EF 9D 07
 05 6F 69 90 87 B6 08 AA D9 CA 7D A7 EB 75 9A 5F
 7E 7C 7A B1 3F 75 84 95 90 9B 93 3F 61 49 A3 E3
 1B 85 45 90 BA DE F5 C3 09 9F 63 54 C6 2A 59 F1
 4A 1A 16 58 F2 12 9E 0B 1C BC 35 27 E9 54 99 E0
 2F 3E 43 6B E6 8D 06 F7 1C 51 8A 3A 6C 5E BD 29
 14 46 2F 94 39 FC 02 8C 1D 71 A9 44 04 E6 19 2E
 A3 7E 21 61 96 09 CF 52 C0 90 AE B9 77 36 7E E5
 71 FF 10 80 36 E2 C8 B2 31 B2 60 3A 6A 01 ED 15
 EC 34 BA F5 0C 29 84 52 B8 0F D7 D9 48 EB FA E3
 AC 37 2A 3A B5 7C 8F 69 6F 95 E2 C8 BD BF 4D A5
 AE C6 D5 A0 BE C5 F3 B7 DF 66 20 B6 65 9E 95 07
 8B 75 E1 CC 24 5E A3 75 8C 92 EC A1 2A 39 F5 6C
 32 7F F2 0F CD 8D 31 5F 1C E7 07 B0 26 27 4B 34
 F7 42 D6 11 D2 62 37 67 D7 11 5B 9E 2A 70 C6 F8
 A6 AD 7D 2C 5B CC D3 A4 1C 09 B8 72 54 0C 6C CF
 CC 00 D0 5A 09 00 65 C4 78 EA 87 95 C1 01 6E 00
 34 63 75 C8 73 E3 76 BB FF 9E EF 06 87 F4 88 62
 02 F6 A9 98 AA F9 29 36 01 95 D0 6E A9 6F CB 8C
 2D D6 34 C5 E6 B7 DC 83 45 A4 42 78 52 B7 8F 94
 29 1A BF 4D 63 52 63 AA 18 82 45 A2 E1 27 E7 7F
 C4 76 29 85 89 EB 6D 9C 11 CD FF C0 06 08 DE F2
 62 09 3F 6B C6 66 1C 2B 4A A2 AB E0 76 53 10 55
 DF DA 68 77 2A C4 80 FA 36 B7 34 A9 CB F6 9E 48
 8D 34 D8 EA 08 AC 60 35 6A 22 BF 95 0A F5 AE 5B
 DA 2B 61 00 4C 18 FD FF FB AB 4A C6 4F D5 8C 12
 74 54 02 35 EF 14 EE 3E FE 36 3F 4F 63 68 DC 08
 4B E9 6F 97 1D 21 24 2A 53 EF 52 D4 83 88 1B 13
 A1 92 F4 A0 2C 9F 88 F7 7D 62 C4 E9 D8 DD CC CC
 C2 8E 6F FA CF B1 79 EC 80 F3 78 E6 1D 50 5C 58
 12 A6 40 F3 93 59 D3 4B 90 5B 23 22 77 BF 6C 79
 8D AB 13 16 31 7F 4D C4 FE 97 08 85 CE 59 90 33
 76 DC F5 1F 3E A1 41 D5 A2 58 DC 9A 08 29 37 DD
 1A BC 6A 82 D3 9B 93 42 22 3D 6B 63 CA AE 4F FD
 E4 AB F9 F3 82 CB 71 2D 86 42 F6 06 16 DF 20 48
 63 EF 88 0B 7C 0F 1B 1E 40 B0 D5 07 FB 1F 06 7B
 DF 0C AB 0A 8C 7C 75 FE 4B DB E9 16 AC 17 CD D3
 65 D5 DD 49 42 E6 EE BA 9E 12 CD 61 E1 52 E6 D0
 AC 0D 33 4A 60 10 84 1A 30 49 AC EE D4 97 54 91
 BA 53 12 F2 FC 2F 74 42 8C EC A2 D2 09 09 9B F2
 1C 0D F3 13 97 B1 A3 F2 F4 3E E7 45 C2 FA 26 D6
 66 CB 0A C7 68 BE 84 22 93 C1 5C 81 A1 2C D7 24
 D8 29 2C 46 05 1D 3C E5 9C C6 16 D2 9D 89 C4 62
 85 6A 90 4B 75 07 97 EB B1 20 BA 62 67 4D C2 9F
 F3 03 6F 11 E5 FC 3F 72 FB 1F F9 7F 5A 3A CC F6
 D5 04 55 58 38 12 EC 02 AA E5 7F 4B 9F 1E 06 3D
 A3 A7 9B 19 3A 2C 37 BD 08 48 DB FF DA 5F E4 7B
 4D 0F D6 E6 43 85 10 F5 D5 27 B3 22 B8 D6 B9 4E
 20 20 A2 7D E5 8D 7F E3 C1 E5 D8 1A 0B 87 7B 0F
 42 9E 8B 2B 94 E7 65 E4 53 CE 97 86 99 E1 F4 D9
 F4 C6 46 EF 4A 3C 97 71 DF 43 69 F5 AC 0B 3D 6A
 1A 0E BF 84 F9 CC 14 1A 4B 96 78 54 52 18 00 39
 9E 1D 85 F5 AA 6F 27 77 BE B6 13 0D 7D F6 5E E0
 0D 1F DE 76 52 A9 78 CF 4C FB 8E 87 74 EF 3B 90
 8E 8F 7A 88 C4 21 5E DE D0 6F CE D0 4D 6D 2B 3E
 30 E8 E5 E2 63 8F EA DD 7E 62 D0 16 AC 3D 32 4D
 1B D6 80 46 08 A4 CA 56 76 F1 80 89 17 F6 5F AE
 D1 9F 40 06 CF FA 5B C3 16 53 C7 08 56 FC CC B5
 0A F0 61 48 1D B5 E1 B5 0C 91 B0 36 9A A2 B3 59
 B6 40 1F 5C EC 11 44 F1 7D 3F D8 2D 54 5E E5 A1
 81 17 55 4A 32 96 D1 C1 3F E8 CC 60 11 51 EF D0
 B2 6D 1A 85 87 F1 E8 3D E2 55 54 81 7D 0E CE 43
 AA DF F9 73 E9 85 24 C8 98 81 D4 7A 22 A5 A6 F5
 4C BA 90 99 74 6B B7 27 01 12 FC 66 02 5B BE FB
 70 16 4B 67 BE 7D F3 43 02 56 8A 70 04 15 63 23
 E9 B1 C7 43 4D 66 56 63 E3 E8 70 AD 07 79 9C 85
 F8 7F 71 69 A4 35 8D ED 93 01 D5 1A 27 FE 7E C9
 19 F9 E8 1E C7 FC 9D 41 8F B5 C8 60 6A 59 76 90
 54 AA 35 AB 2D 54 AB 75 F4 A4 C4 94 77 CA 87 D2
 89 D5 49 E9 02 57 36 4B 1F 6A 0D FF C7 B1 05 31
 90 CC 0D 9C 3C C6 C5 57 94 84 59 A0 0D 7A BF 11
 72 50 20 52 A6 88 8F 05 04 FA A3 0D E9 94 66 74
 0C B3 A4 FB A5 20 75 9C DA CA A9 E1 73 BF E6 77
 F3 75 8C F6 FC 1E 97 25 25 C4 61 4F D6 9A D2 E6
 7C 79 ED 19 A9 98 6A B6 32 F1 BE A4 9A 99 B8 66
 33 25 BB F9 BA 42 4A 10 09 7E B7 EC EC 41 75 42
 13 56 AE 99 97 35 2D 88 C4 25 27 4A 62 91 B5 40
 AE C5 A5 D4 4E C7 A9 87 FA 48 25 D4 C1 D0 A4 08
 94 DE 6A 19 41 68 E3 14 78 94 3C 39 7E 66 24 50
 AF BD 5B 93 A6 59 03 5B 9A C8 77 ED DD 2D A3 43
 23 68 48 D8 63 02 24 39 29 5E E3 75 C7 4B 75 5A
 DD 34 65 5C B3 71 21 C0 CC 05 99 26 F3 59 9C 12
 83 3F F5 48 CE C4 45 F7 1D 7D C5 CB 31 74 56 1F
 1F B2 BD 82 F2 08 09 2B 05 94 37 3A 98 DD 14 A8
 81 2F B0 2E 1C 35 3C 98 EF 5E EE 12 37 38 17 C3
 62 C8 BD CB C0 C7 51 02 08 24 DA 96 73 86 0A 8A
 49 49 15 83 85 26 2F 17 FB BA 11 51 24 06 7D 8F
 6E BB 6E 00 6F 4A CE 54 B9 B0 5B 3D F2 23 CF 99
 80 96 F8 91 72 FD 08 EE D6 54 CC AE B4 82 EF 23
 66 AF B4 83 24 D8 61 7B F1 36 BD 28 44 85 1E 0C
 21 F5 C3 7F A4 FF 6F E5 C5 D7 D8 86 97 B0 FF 15
 57 90 84 6F 00 93 48 A0 7E 92 5F AD 5F 37 BE 6A
 68 AE 45 34 FE 4D 33 66 3E 1B A2 94 BE E8 86 46
 F6 8B 86 BC 25 54 2C 48 77 01 9C 20 DD 64 21 50
 02 9D 59 E3 71 E5 CD B8 E2 1C 5F 24 4B D9 8F 68
 8A 03 6C 89 B5 59 90 7C B0 A9 C5 3D D4 C7 80 38
 09 AB 37 EB 28 45 C8 49 4B 0B 30 57 AB B4 3B FD
 69 EB 73 99 E4 88 51 D7 E1 DB 4E EA 9D FB 8E 4C
 09 73 2B 4D 71 8E E5 78 F6 70 D7 B8 90 D2 18 75
 C1 4B FA D5 F9 93 A7 C9 5B F3 C3 13 18 2A DB EC
 C0 9B 7D 42 C1 65 9A 0F 57 D1 F2 25 E7 31 6D A3
 F0 A7 B3 CE E9 70 ED CC DB FC B3 63 11 1B 7A 8A
 84 99 77 62 5D 3E A5 67 F6 17 0C C7 46 A6 2A 46
 15 18 61 C6 34 C0 D3 F7 33 C0 9E 34 DC 40 F7 8E
 34 43 30 90 8B 22 83 5F A5 B6 D4 7C 54 E5 17 06
 CA C9 B2 F9 FC 63 6A 69 1D A3 2B 2D C8 73 57 4B
 BF 4A 7A AB 68 98 79 EB 18 73 08 D6 20 E5 89 36
 60 89 AC EB 9A E0 0A 3A 5B 62 1A DF 04 DA B0 8C
 74 2E DD 0D 00 21 57 03 0E 68 B7 60 C5 7B A8 DA
 A7 6F 3C 3D D0 23 8F 3B B5 A9 C9 F4 25 39 E7 E5
 1E 25 9F 87 92 FA A4 5F 1A 5F 9B 9C F4 A0 CE 8E
 A8 B7 DD 1F F0 8B 7B 10 00 6B B7 83 E8 C1 87 45
 A5 33 9B 34 43 E7 4D ED 8F A6 5F CD 1E 33 6D 40
 0B A5 E4 A2 1E 27 07 87 74 20 18 5C 87 9C BB C8
 7F DD 7B 7C 7F D0 5C AC EF 4E 82 36 53 56 B4 37
 E2 80 ED 4D 08 9C EC F5 37 FC EB 72 CB 2F FA 54
 77 D3 3E 87 18 21 B8 AE 9E 42 07 E4 A1 07 11 23
 5C 8E 67 DB BB 98 00 22 B5 5E 6B 38 1B E2 38 BE
 3A C6 99 0C 2F FD E4 53 88 C9 DA 3E C3 4B 39 15
 11 C7 A9 93 1F C7 14 3B 74 FE 82 89 74 C3 E5 E8
 0C FF 19 3A DB 17 81 94 A5 05 3F 50 67 29 78 98
 17 63 26 F9 35 6D DC 4A C7 A8 8C 0D E2 81 A2 94
 5D FE DA C0 EA C2 44 45 1C B6 A8 02 B0 A6 A6 41
 B3 5D 87 E0 DC A3 A3 C3 0D CD CE F5 62 C1 9C 63
 75 6F 66 9C DC 98 11 04 C0 45 57 DD 69 9A E8 9C
 E3 64 D2 02 B1 E3 E3 2F DF FD 98 94 0C 55 A2 B5
 8B 20 A5 0B 69 83 9B EF 0E F5 AC AD B3 58 28 F7
 10 CC 4A 17 D0 41 5C 31 27 62 7F 87 B7 A3 52 E3
 E9 4B B6 0E B0 0F 7A 5E 18 E3 2E 7C 08 4A 66 C9
 06 7D 71 2D E0 CA 0B F4 48 70 4C 59 27 F6 BE 46
 E4 B1 F1 FB E5 FB D0 57 6B 80 6A C0 87 56 07 44
 04 F0 FB FE F4 73 7A 10 C7 48 80 3F 5B 48 88 7F
 19 8F 82 6B 8B 15 BF 11 02 CD 62 4B 4A 80 26 A7
 4E 6D C4 A3 03 96 D8 28 C4 1C B9 F0 C0 EC B9 80
 E6 8C 36 A5 48 0F 83 DC E0 DB A6 81 9A DD AD CD
 EE 48 44 28 C2 E7 DD 0D 48 D9 98 D8 A7 BC C5 5E
 6C 61 0B 7C DC 74 42 9F 18 2C 8F 41 A0 AF 42 DB
 76 05 11 9C BF 6A F7 70 EF D1 C5 54 D3 45 FB 16
 93 76 60 5D 0A AD C0 3D 34 8A 3D 90 2C 16 C5 67
 B6 20 BF 67 63 D1 8F 2A 3D 32 AD 5D 44 72 7A 75
 7E 89 B7 22 06 61 68 BB B5 6E A2 01 B9 E2 CA 5B
 30 9B F9 D3 DE 90 F2 DD AD 1A 66 A4 9C 41 38 9E
 8B 35 8A 5B E0 8A 56 4A 9D DB 19 6A E3 D0 46 DA
 CF CA 39 AC 8D 76 BA 4C 65 1F CC 19 11 4B FC 7B
 8E 8D D3 EE 6A AA 57 79 52 C3 0E 59 24 78 13 34
 69 22 40 98 DF FF F1 9D 51 1E D5 D9 01 9D 8F 38
 ED 7A AC 34 F8 87 4D 91 0F CA 0D C9 AA 6F 5D 9D
 60 52 8C F0 54 68 31 5F 3E C4 56 D5 56 3A E1 D5
 00 2B 0A C5 B5 A2 8F BD D8 96 7E 50 33 DD 29 4A
 23 D8 7C 99 8B E1 77 51 DB 46 E2 56 0B DC 42 C3
 DD DB 52 12 97 02 87 76 10 8F 0A 08 7D 02 DE A4
 66 D8 89 B1 DA 39 D5 3F B4 E4 D1 4B B3 C7 62 32
 E9 6F 61 30 72 D9 BA DC 91 B7 8B 78 60 F7 C2 96
 88 1B 27 D5 D3 BC E5 CE C6 DC 86 30 5F B0 12 25
 1A 1C 69 69 DA 85 A9 91 25 52 80 84 DD D2 0C F2
 5C 9F 75 8C FF C2 7C 47 0A A2 DA D5 43 20 F0 D8
 9B 50 2E 36 51 90 07 BA 9C 72 48 29 FA 8E 02 BD
 AC 63 FB 49 62 4E D7 1D CB 8F ED 46 EC DC 33 3E
 83 B5 F0 ED 0F 50 A7 E3 E9 5E CC 85 B0 CA D8 6B
 62 98 CD CA 99 75 9C B5 FE DF 02 3A 60 1D 1B 6D
 D6 2E FA 3A 31 71 4F 13 3A 9F AC 25 EE 80 A0 B0
 17 34 07 4E D0 26 41 A6 38 E9 5F 44 89 DB 1E 03
 2F 5B A0 B9 DB 1E 23 86 92 1C 33 6C 19 56 7D D3
 7F E1 42 8D 08 D5 E9 BA 9A F5 EC 81 11 CB 20 1A
 80 2B CB B0 72 B0 45 D9 6C FD E6 FF 10 D3 38 D8
 FC AE 45 4B D3 88 C1 95 E7 55 83 CF FB 22 09 34
 F2 22 86 DE E3 A9 B3 98 C1 0B 21 96 5D A5 CF B7
 C6 12 2E C4 71 AA AD 27 6F F9 27 15 99 06 C4 49
 DE 64 B7 C5 BA 59 37 72 32 4E C9 C3 77 13 56 7F
 BD BB FF D2 64 9A 02 54 6E AF 95 FE 0A C3 25 47
 1D 3C 37 B7 6F B8 05 65 FD 51 4E EF 39 5E DC 7B
 37 6D C2 BD 65 A7 73 38 13 B1 33 26 86 6A 6D 71
 AE 27 0A E0 08 6E E6 F3 23 B0 5F BF 8A 7C E5 3A
 53 CD 09 D6 24 44 FD 47 04 AB 18 CA 8A 5F AC FF
 9F D4 22 B3 4C 80 27 E1 25 12 15 9B 0F 20 D7 CB
 AE 77 D9 5C B3 09 C7 24 94 D3 C3 31 33 2A 6D 52
 37 A0 B1 FD CF CE 23 C4 BF D4 4F 2D 97 6A DF 13
 7D 2B 8A B0 90 E6 47 7C 68 21 D2 6B 77 D4 D0 19
 5D E6 1C 9A 2F 89 3E 05 18 F9 53 70 21 9D 0D 97
 B2 5E 6C 60 6B 7B CE 7C 5E C8 E9 C7 B0 FA 23 81
 94 C7 BE 48 9B CD 70 2C C8 8F 24 6C 9E BD 36 CA
 81 70 78 01 37 05 2F 0C 4F 9F 23 3F 88 8E 71 4C
 23 D3 F9 FF 66 3A B8 3E CD 46 C7 FA F9 80 1C CC
 C2 15 0F 6C 9E 8C 54 E1 F9 06 96 B6 53 42 B7 FA
 5D 92 83 55 DC 11 5A 5C 38 2D 5B C5 57 32 A7 1C
 34 47 3C 53 00 EF 42 E0 89 17 51 5A 82 8F 8A A9
 17 4F 21 C4 D4 AF 56 08 71 50 51 EB B6 51 50 49
 00 B3 5A 55 DF 53 5E CA D0 0D 4C 00 40 59 7D C3
 0D A8 4A 81 98 F8 2B 2B 90 AF 58 67 55 90 39 36
 D7 67 07 B9 7E 0B AE 9A 77 9C 33 46 23 5C AD 33
 8B 82 DC CB 13 FA 6C F4 BF 14 E4 DA 5E 16 3E 5E
 5A 68 4F 3F 36 79 9C D5 AF DB 75 31 0F 16 4A 2B
 04 13 D3 33 EB 9A 3A 44 26 AF B9 30 B2 DD 16 98
 AC F7 24 7B 7B BE 39 4E 14 1D 85 61 95 A1 24 A5
 84 76 4C AD 4E 43 3A 68 A1 81 B9 A2 4C 58 25 72
 FE 2F 88 A0 40 70 6B 22 71 3B CC C1 1A D3 4E 83
 4E 36 66 EF 6C 11 1E 19 2A 84 43 31 5B 0D C2 2C
 C6 FD 7B 25 07 C8 8E 71 F4 83 9A 8D 74 49 1B 28
 21 9C 55 EF 30 5B 12 C2 15 DF CE 51 20 A6 FC F2
 7F E8 37 E6 7D 90 C8 8E 75 89 31 3A 22 E8 18 D2
 79 A9 B2 1C D6 BA 3E 9C 3A 7B 9C 4E 0C A8 09 DD
 A2 6B 97 1D 63 8D 4D DD 5F 3F 7D E0 32 8D B6 B0
 12 BE B8 1D BC 55 16 91 95 31 50 6B A6 6B D8 8A
 26 ED 70 72 E1 41 FD 50 BC 9F C8 D7 94 32 73 10
 44 4F E0 57 A5 8C C3 DD 5F DE 9F 70 48 D9 A6 F6
 21 91 71 33 61 DB 4E D6 3F BA C3 F2 1D F9 38 C0
 CB 02 27 B0 7B AE 0F 13 5E A6 1F E6 F4 DC 84 90
 BF 65 8D 50 46 73 FA 84 8E 15 45 19 1D F5 C7 10
 72 3E 75 CD 29 14 7D 74 9D A7 86 B7 3C C5 67 DA
 75 EB 67 32 CA EA 4E A0 4F C5 64 5C A1 3E 14 45
 FD 16 BF 9A C3 B2 C0 B2 3F 1B 10 63 6F D3 81 D0
 E5 0C 26 68 D7 A7 19 78 6F B7 AD 04 EF FB B9 F0
 A5 32 D0 0B C1 C8 F5 52 8E 69 4F 08 5E 26 25 26
 79 93 66 28 6E 67 6D B1 1D 3C 53 2E 14 98 20 20
 58 F2 E7 FE 12 AA 24 89 06 FD A6 7C D6 9C C9 82
 C3 C0 AF 5E FD 47 30 48 1B 2F CC 5C 08 CC 67 4E
 1D 65 FE 5D 72 8D 05 8D D2 3E 9B 0E 80 BC 40 DA
 3E 81 B2 B5 6F 58 B5 11 65 84 B9 58 DC 63 E5 6B
 09 F4 BE 08 35 33 03 1A 0B 16 1F B2 10 34 38 77
 A9 A5 E3 8E FD 2A FD DA 0C 99 60 46 C7 48 7F 96
 99 D6 99 FA A8 66 A9 F6 75 E8 8B 36 64 CF 46 59
 45 8C D6 E0 A1 CC EE E3 3E 66 B8 23 9E BC 67 5B
 E1 35 40 61 0A 6D 0E 70 FC 0A 44 F6 98 4D A6 0A
 4E B4 79 AF CD F0 62 01 BC C0 12 59 F9 58 86 21
 98 28 DF 40 32 C7 ED 31 AD 56 19 55 18 2C D8 6B
 66 05 F0 74 6E E1 85 3E 2A 01 2A 1A A7 3F B7 28
 DB 4D 56 18 ED 06 85 0D 15 9F 04 7A 0D 24 DB 6F
 9C DA 75 6E 7E BF E7 84 CD 42 3F 87 EA F7 3A 1D
 07 76 B8 B9 18 57 EB 67 61 3E 70 9D 04 FD 39 ED
 7D 46 F7 4C AD 96 A4 41 A0 05 2F 93 04 BF 93 D6
 49 E9 19 10 8C B6 A6 DD 9B 96 38 7D 92 DC F2 3B
 46 1E 9A 77 8E 34 9A AB 54 D6 89 AF C3 6C 79 A3
 65 51 01 9B CB 37 57 7B 52 2C F5 BD C8 0C 84 D8
 F4 09 43 BA 09 DF 1D 53 34 7D BC 43 1E D9 C3 82
 62 97 DA 55 8A 93 F7 CA 54 35 3E 93 8B 76 74 C3
 27 79 A4 F4 B0 16 DD E2 33 06 7C 8A A4 24 53 68
 A7 AC 21 04 10 B9 9A 03 D8 79 F5 99 81 58 E8 5A
 33 93 B0 2B 68 A2 7D DC 52 EE 63 71 44 90 A7 AF
 DF 58 8D 5D 7D 80 15 48 3E 4D E7 32 CD E8 97 E5
 81 7E 1D 60 E2 2E BF 56 CF E1 B3 DE 39 E3 C0 A6
 67 1B AE 2D 39 42 1F 85 B9 E9 14 7D 55 FC 36 10
 B5 D9 C5 95 8A 39 B2 FD 25 3C 8A F7 41 95 CC 7C
 D4 AC 90 7E 43 19 A3 9B 8A 1B F8 31 87 63 42 02
 B1 72 71 DA 00 3F 04 58 85 B5 35 E4 2E DE 5E F3
 35 32 E6 E0 EE 20 BC F3 E4 D6 BF E0 FA 64 27 8F
 08 EA 0C 6D A5 07 CC C7 D0 DF B9 81 2A 87 48 0B
 49 AC FE D1 24 B4 E0 EE C7 F8 8A 6F 64 26 0A B8
 84 64 AC 43 1F FA 94 89 AD A7 A1 9A 16 13 E8 50
 E2 36 F7 29 33 6B 08 BA E4 CD E3 B2 03 E9 6D B4
 D8 D7 24 2B 8E 20 3C 3C 8D 9B 46 59 0A 0E B2 5B
 FC 8A 64 F9 9F F9 21 0A 52 FC 93 36 E9 DD AF 78
 EE 86 03 A0 8D 44 EC 9A 1D C3 17 EA 46 14 73 04
 2B 33 02 58 F2 E7 66 93 CC 94 3B 92 AA E6 EC 1D
 82 3F 77 7A 01 F0 8D DB 9B 62 91 F9 76 FE 6E AB
 89 31 81 25 5B FC 99 E7 D5 B2 47 BA E8 5B 89 EF
 0A D6 40 66 3D 19 61 BB 1D D9 AE 0C E6 C5 A4 C0
 4A B7 07 63 04 69 D3 63 BE B5 3C A0 11 AC 71 DA
 CE EA 7B 12 06 8E 95 0D 4F 11 C4 41 80 D1 04 88
 10 57 B5 B1 9D 16 C8 95 09 16 36 6A 6C 2E A7 38
 D5 E8 6B 67 6F BB 97 C5 77 8F FC A3 D6 36 DC B7
 EE 99 A7 A3 B9 36 8D 0F EE 0E CC 2D 2D EA B3 36
 D4 F7 DE EE 3F E9 83 48 19 96 CF FC 6E 23 DE CD
 52 7E 90 8D 11 6A 81 8A A2 A8 A7 47 6E 0A A2 1E
 C2 54 BB 1D 2E 94 97 3F DE 52 29 4A 9D 16 92 D0
 7A 44 29 1A 11 5C F1 9A AC C5 6B 1E B6 F4 93 BD
 6F CE 87 AF 89 71 AE 72 7C BD 95 85 CE 6F 60 A5
 48 A9 4C 36 8A 20 7A 8F D8 02 87 21 EB C8 5A 85
 B9 67 3F B8 4B E4 CF 09 CE BF 3D FF CB EC 34 C3
 0C 29 FC 34 7C CD 61 D4 2C 24 8A 01 C0 53 8C 5C
 BB CD 48 9A 35 B4 78 1E 35 AF 41 C8 BE F2 DC 66
 9C A7 66 D1 D8 83 EE 8C F5 69 37 7D C0 7C 13 FD
 DC 2F 6F E0 F3 BF 6E 43 D3 6E A7 28 F4 08 98 8B
 1C C8 F7 FF 9C E4 D7 60 30 DC F0 3D 34 5B C7 C7
 51 7D 24 43 8F CB EA 54 08 A4 1D D5 1E 28 E5 95
 02 FA 62 D4 73 62 34 37 A3 48 4F 2C B2 59 6E 69
 F6 FB 0A 98 A0 CF C6 EE C7 01 B4 4B 94 92 9E 52
 CC E7 D1 49 BF 73 61 2B 6B 49 A4 AF 33 EB 88 0F
 E7 71 DB D3 31 9B C3 25 25 D8 59 72 D4 5D 6C C6
 4D DD D1 01 1B 1D 04 D9 73 BF 13 E5 DA 20 8D C9
 78 D8 67 2B E2 EB 75 82 C1 A3 E5 64 F0 24 4A C5
 AB C3 84 63 1C 68 E8 43 95 DD 41 71 15 F0 FB D7
 E2 83 E0 F0 1B DE 22 9E B4 78 36 2A A4 52 EF A3
 54 EE C9 3B 15 A6 72 CA 1A 04 EB 9E BB 3D 99 E7
 FA A3 35 11 ED FC B6 59 EB 5D 8A 9F DE 80 0F 0B
 02 AB 8F 1E B0 2D AA 77 18 7D 2C EA 8B 08 B6 70
 93 8C 0D 87 60 80 11 86 7F D8 66 14 4B E7 B4 E3
 44 90 8F C1 46 39 2A F2 7F E8 27 43 10 39 64 52
 5F 0C A1 EE 2A DA 8B 0D E6 28 95 E0 EA 43 D2 40
 52 16 17 6B 59 0F 2B EF D5 EB F7 7F 3A 68 3D 88
 0D 01 13 AE 52 65 D0 1E 29 2C D3 F5 96 47 DD 24
 F9 E4 16 7F 65 0A DC 2A 51 97 90 45 DF D7 EE 0F
 75 4F 53 FB C7 43 11 F0 A5 1E 6C F8 21 BC 95 5A
 F5 AA F9 97 46 09 69 D9 B3 1B 62 D9 CB DE 12 4E
 D4 4E 17 48 D4 37 A9 82 BD 19 12 35 C3 69 5A 46
 C1 86 57 36 AB D2 C2 28 9B C0 56 74 34 21 9C C9
 6D 24 1A BA 8A A2 23 1C 75 54 35 67 E9 CE 46 A6
 6A B1 D8 1E C7 98 E1 B4 35 A3 E3 4A 47 02 72 BB
 0A B8 6C 6E EF 0D 55 98 9C BA 4E 0A 30 36 7C 43
 A0 CD 16 37 E8 40 14 58 56 86 27 4B 54 91 D1 6A
 BF 45 37 B6 BB 9E CB CB 61 89 F6 26 87 4C 15 BA
 7F C9 63 11 AB 92 2C 93 1B 56 AC 89 C4 D8 B6 B7
 C0 B5 5C 3E AB 7A A1 AF DC C0 CA EE 72 FA BF 38
 2A 9A 9A 8D 70 9F 75 41 E4 65 9E F2 A3 05 2D DA
 00 1F E5 1A 56 76 01 D1 17 A0 33 5C B5 0E 96 B0
 DD 64 09 C9 42 E1 23 96 1A 07 AB 9F 44 93 27 E6
 9B 9C CC CD 31 07 C2 48 CB 80 21 3F E5 D3 EE 6A
 D1 E8 8F 55 5B 0B F9 12 22 AE EF B6 CB A1 40 C9
 3F F7 E6 C4 E8 67 44 69 4F 47 93 EF CE C8 39 80
 6A FC F9 36 6F 20 9B 01 BA 57 39 CF 27 AF AF 2D
 3F 3F A8 E4 FB 0A D2 54 12 65 94 CB 2A D2 DB DF
 54 10 E1 F8 43 4D ED 3F 7A C9 53 9C 64 AC FB 21
 5E 11 6E B0 29 DB 87 7B 27 62 C4 43 67 94 50 E4
 D4 3A 87 22 4D 4E 80 3F 31 4C 42 CB E1 12 E6 AE
 1A 07 07 BB 9F A7 46 58 10 F1 B0 F2 E8 AD 20 FC
 7E DA A2 51 B1 0C 5F FD ED 8D 54 4D 10 91 9E 6D
 3B 93 3F 15 DA 42 83 93 E2 13 77 AD 57 2A 7D 59
 04 A2 B3 D2 24 F1 B8 09 B6 52 7F 5D D4 6D 50 34
 22 26 06 A2 B1 34 08 65 37 2E 36 DC C7 AA B8 77
 A6 5D 0C D2 0E 37 EA 3A 1C 98 FF 32 50 CA 6D BA
 6D F3 80 4B 7E AF BE A2 62 C8 38 74 DC 83 0D D5
 E7 E7 71 0E 44 99 95 F3 D2 45 58 7F E1 AF 4E 79
 2D E4 0E 99 41 E7 8E 6C 51 F2 61 6F 15 D7 D2 95
 5C 6E AB DC 70 A1 52 DE 9B 03 1A 68 66 C1 CE 4A
 95 CB 0B 84 BD CF 48 E6 D2 1F D1 86 97 D3 C4 0A
 C4 D8 AA C4 71 29 ED BD CB 49 A1 DD 61 98 06 EB
 75 6A 52 A8 62 E4 25 30 B0 18 BE 81 BB D4 C9 AA
 1A A6 C0 16 58 8E 2C 4E C7 6C E9 E3 C4 E7 F1 C6
 7E DC 42 54 A5 C8 AB 22 46 35 FC 1B C5 08 EB 71
 10 4A 33 14 4A 1D 07 73 50 F6 33 B9 9B 1E BD B0
 30 60 33 C4 7F D6 0C 16 EC 51 4F 9A B5 0C 11 D7
 EB 1F 7D 88 D7 67 80 86 0F 1D 69 8B 35 DA A5 D1
 EF 23 F5 4F B6 4E FF EC D9 EA A0 46 51 92 82 6D
 91 34 24 B4 5A BF 37 69 A1 F4 F3 E8 CE EF 29 AE
 31 3F 52 3B 0D 4E 3B 92 40 1C 72 E8 D0 B1 C8 A6
 5B 84 13 21 1E E3 9B 4E F0 75 37 F6 E9 B3 81 C3
 36 50 BD 7D 68 E9 68 3C 5D 45 48 16 CB C8 53 89
 02 D7 CC 25 BF 76 EE E7 32 BC FA 14 A1 B4 5D 95
 E7 D8 F7 4D BB 2A 07 30 10 DE E8 78 A8 87 B9 7F
 A6 D2 9C 35 14 7E 5C 71 A1 DA 61 19 40 E1 EE EA
 DA F5 34 3B 05 2C 6D FC F0 A3 02 DB 89 93 95 B7
 28 73 76 12 CC A1 EE 35 7F 02 70 1F A4 86 7B 31
 F1 D0 DD 10 27 9D 08 7A 17 D3 37 6C 0E EE C4 46
 5E 9A 82 51 3D C8 38 7E 57 9B 6A B9 5C 5D 70 DD
 AE 40 15 AE C1 C1 79 F3 77 9C FA BC 5E E8 42 38
 63 D1 C3 BA 87 10 7C 15 D6 15 57 BA 01 A4 4B DA
 5D B4 91 88 B7 4A 9D E9 B1 83 A0 60 C4 15 82 C8
 06 AA 2B 0F 2B 73 51 BB 99 E4 05 5F F0 D5 E1 A1
 B8 30 2B 8D 66 2C 38 28 D1 10 6A FD FC 55 36 B5
 8C 82 A4 2D 93 4D 5C 68 B7 21 C0 3A 3F B1 B3 09
 3F 60 B4 3E 94 A7 B5 29 C9 C5 6E 81 BD C6 D6 49
 CF F8 57 5E 1C DD 05 46 E1 4F B3 14 38 62 CD 5E
 19 C9 C0 36 2D F3 0E AD 92 A6 C3 F5 C4 07 7E F6
 2D 2E F1 14 31 B7 8F 52 05 F7 7B E8 3B A5 69 67
 7B 38 9E AB 2C 05 C0 A1 A1 2D 91 8F 84 94 8E A6
 E7 5C D3 E5 81 4C 13 EE 89 47 DF 5E 20 AF 46 4B
 1C 89 7A 3F 47 1D EF 7D 57 0A 0E F5 39 74 A6 E9
 76 58 3D 66 E7 67 FF 53 47 BB 4D 13 E1 C2 57 6F
 11 60 42 17 28 7B 14 31 F4 EF 9D 0D D0 F9 A7 4A
 9E 7F CD BD F5 5A 81 4B 38 8E F6 43 5D 08 FE 16
 0B 77 72 99 AB 40 04 56 EC 2B 2B A0 C7 92 8F 44
 A7 71 C1 F7 D9 2A 99 72 05 CE 08 D3 01 F8 B8 68
 5B D1 CC 7C 44 FB CB 8D C5 44 4C B8 B5 FB 5D 31
 B2 48 6A A1 D4 DE 8C C0 5C D1 70 DD 05 9C 5D 13
 7E 28 41 4A DF 0E CD 08 EE 1D E8 EB 4C 96 70 09
 AD DC 5F 50 64 66 5B A5 B2 C7 D0 3D 8E 88 91 30
 2C 36 F0 ED 67 81 78 49 5D 0E 85 B9 17 2F F9 EA
 05 3B BF 20 E8 93 70 CC 61 ED 39 C5 E2 7B 82 5B
 E8 0A 62 65 80 2E 13 76 95 F8 04 31 76 DE 53 24
 1B 00 E5 8D AA 92 9C FE 68 5F E6 9D 4F 09 62 0A
 FE 77 78 3C BD 7B 91 0C 96 D3 C0 80 A8 80 18 17
 D2 15 D1 49 F7 27 5C C5 F4 8F 33 B9 BC 6D A9 27
 50 7C 8E 3A 8C F3 13 0C E9 F4 69 7C A3 49 93 7F
 CD 92 C3 D0 24 B3 90 CA 70 2D FE 3A D9 EB AD FC
 C5 1A 44 11 FC 74 5C D7 6C 2B 4B E0 AB 1D 9F C3
 77 64 52 B9 28 66 76 19 B8 D7 6B 5A 68 CD 2E 58
 DB 31 4C 6B B2 E2 6A 17 59 F2 D1 AD 8D 2F CE D2
 81 7D 2A CF 58 10 03 B1 B8 1B 83 AA 6B 84 BF F8
 58 92 4D FA 08 D5 72 1E DF 31 EB D8 74 F5 5A 1A
 C6 51 45 D3 21 29 E2 33 8D EA 55 4F AB 10 B6 40
 A3 E0 3B 72 BB 7C 08 9D A6 D1 08 60 06 E6 36 AB
 66 6B 22 37 6E 3A 92 3F 06 04 D6 04 38 26 0B BC
 DF 34 E2 62 8D C0 E3 6B D4 A2 CF A6 FB 9C F7 FC
 9A 71 C2 1D CE F8 21 E0 3D AB 6D 35 57 A3 36 F1
 97 AB C8 B4 EC C7 71 BF D8 70 D6 D1 82 62 BF FD
 BE 34 A5 7C DC CA 04 37 CE 11 8F A6 AD 63 84 1C
 C6 2F 1D 17 A7 8A AD 08 20 1E 15 F5 C1 5C 81 D9
 F8 95 BC D7 07 00 ED 70 5B 3F 1E 65 C7 23 E5 F2
 03 46 97 6E 5F B1 E5 7B 9E DD 5B 2F 47 1F E6 BD
 B7 B1 BF 15 0A FB ED 63 89 37 C9 A8 7A FE 48 E7
 18 06 64 4A 79 39 AB CC 37 E9 61 75 EA C8 B3 91
 05 B2 22 66 3C C1 85 27 EA FF F1 BC 85 42 DF CA
 C6 4E 7A DE F1 40 CF C6 A3 24 D2 AC CF 80 38 38
 9F 3A 47 8C 05 2E 1E 66 CE F2 8E 4A ED 08 1E DF
 F7 62 5B C2 7C D7 78 0E 71 22 0E AB ED 60 30 7F
 7B C6 6E EB 5E 12 2F 4C F7 07 DC ED C1 72 A6 AA
 72 7D BE 72 E7 89 0B 71 04 9F D4 70 B0 D2 BC 18
 B6 EA 92 CC EF 1C 14 6A 63 BF 9F 09 A3 77 06 93
 EC B5 41 53 5C A1 6D 2A B5 BC C2 8E 38 01 41 03
 88 2E 21 33 2F 9B 89 DE 55 70 F2 9D F3 FE ED 97
 4E C9 14 AF C0 C5 06 91 F1 05 48 79 B3 03 74 9F
 E3 1B 7C 3E 4D 8B 78 C4 2F B5 F1 9E F3 76 DC 88
 97 6C B9 35 14 39 E0 F7 99 41 3D 39 3E 37 C4 CF
 D4 5B E0 2E CD A9 25 36 10 14 A7 2E 7B 63 87 48
 EC D4 1D FA F0 0B 3B 49 86 FF 99 7E 9B 04 CB CE
 D5 9F 73 5F 0D D5 9D 9E 12 32 B8 0C 47 02 08 AF
 5B 56 89 F2 A7 41 B3 70 1B FA B9 65 0A 18 34 0D
 81 59 B2 C7 FF 88 20 A7 A5 27 28 F3 32 BF C9 B2
 EC 19 89 EC 1F F9 D8 2E 30 4F D4 92 90 EC 23 2E
 B4 9E 78 9F 94 17 A0 E0 D0 0F 4E 29 6C B1 4A 50
 64 6D 71 7B AD 7C 2F 35 29 CC A8 92 AF 53 AD 5E
 D9 9D CB CD 52 06 19 E5 6A 76 DE 80 2B E8 E9 F1
 9F 22 F3 AD 3F D9 FA 42 5F 08 98 15 D5 1B 82 3F
 D3 FA 85 48 EF 3B 80 86 EC A5 4F 12 35 58 C2 BA
 EC C5 7A A2 72 0D 58 41 C9 ED 2D EA D5 9C FF C0
 D8 56 59 73 33 06 3D 0A BD 03 39 4F 03 95 31 7A
 A2 FA 16 00 AB CC F9 6E 1C DD 76 AC DA 19 71 30
 A5 B4 F5 A7 51 85 8F AB 8D A7 AE 92 3C 31 B7 4D
 AE 5F 2E BA F7 4C 2A 10 EB 61 AC B2 41 41 F7 80
 CA 04 06 AF C1 77 93 17 5B 9F 5C 72 5F A4 59 FC
 FB 8B B5 4F F0 E9 8B 69 3D 95 53 3B 3E 3D 75 E8
 5D AD F5 7B 15 BB 36 04 CF 5B C3 B4 C1 8F 57 43
 28 B6 72 DA 22 97 30 51 21 F0 09 6D 6D AB FE 96
 F4 39 10 90 21 8F 5C BB 37 46 57 75 E0 24 4C 23
 75 94 30 BF 65 BD 31 D2 9E A5 87 14 B1 A0 AE 9E
 2E 0E BC DC A1 6C 80 D3 F5 05 95 5C F3 E1 1A B4
 7C 11 8E 2C DB AA 36 7F 0B 76 33 4A 65 F0 EB CB
 A1 71 00 5E 0B BE 2C 19 18 F7 A2 C2 EB 82 08 96
 8F 13 9D 70 C2 65 59 66 C8 68 84 5C 07 BB A4 4E
 4A D0 09 70 C2 2E AB 77 47 75 95 F8 E9 E8 5A 43
 FA D1 6C 08 E0 6D 2F 88 6E FD D2 62 4A 60 0B A2
 09 28 C4 66 3E C4 F0 99 42 89 F3 AD A8 8B CD 9D
 A3 71 AE 25 68 30 6A B5 2A C5 E7 F0 E9 FE 6F 82
 8C BB 86 86 8C A5 BE 1B 18 E7 DC D8 CA 9C C6 68
 98 83 4D 70 39 D2 CB DD 5F 10 0C D3 23 21 17 36
 F2 C9 27 1E A9 AD C8 77 19 DB D3 08 8C 65 B3 51
 83 CB 82 17 FA C0 D5 B3 D5 E4 F7 3D B7 CC 0B 14
 50 F8 16 FB D8 98 5E 6F E8 58 96 FF 75 DE 51 1B
 46 25 76 26 04 17 FA BA 58 2E B8 D7 23 7D 21 B2
 10 0D A4 DF 59 99 F3 66 AC BF 00 1F 81 01 3F 64
 15 26 86 AF 50 E3 BD 16 9A BF 34 CD 51 F6 13 1A
 88 7E 27 F5 4E 92 CD 68 E0 02 12 DB 3F 2D DC E2
 04 47 FE FE 93 04 7E 3A 8D E2 92 F7 8A A4 A7 24
 DA 8D A6 B1 4A 1A BF 31 D4 3E 0C D2 61 33 A2 41
 7E 1B 22 95 51 FF BE 02 00 96 F8 01 65 E1 36 3F
 D2 EF D3 6A 7B 28 8F 93 B9 B8 A9 7C 84 6A DD BD
 50 4C CB EB F0 4C D1 B6 10 C3 C8 5D 36 DF 66 B5
 B9 5E 9D EF DA 57 7A 23 30 31 32 0A 3D 73 2E C3
 E7 67 F9 14 65 58 68 12 6B C7 EF A0 3E 16 08 29
 5B D8 B1 C5 15 35 35 53 46 17 82 BB 77 FD 24 80
 B2 6D CA E9 9E 49 A4 26 7F 67 B0 1A 8C 06 30 BD
 B9 32 EF DE 5E C5 14 F2 7A C5 27 93 58 1B E1 F9
 2D E3 FB 42 7D 4B 62 A1 9B 29 96 EC B2 D8 C1 4C
 63 4D 1E 94 F3 7D 4B B0 71 5F D8 AD ED 41 AF A6
 9C 43 29 72 AA 89 0F B6 12 4F 2D E2 60 D5 9B 16
 42 41 F0 BF A6 7F 83 FB A4 52 E9 C1 E8 60 BD 9F
 DB 88 20 95 83 35 B7 74 78 35 45 35 6E A7 F1 BE
 4E 3A B0 37 62 CD 39 6B 58 25 84 1E 97 92 D0 78
 8D A1 22 0A 05 BF 99 FF BA B1 C5 BF 0F 76 7F F5
 DD CD C5 B1 96 CA 1A AC 41 8B 7C 1E 2D 37 85 92
 13 DD C3 8D 78 CF 7D 68 40 44 0A B4 15 32 7F F0
 7B F7 A5 E3 CD 42 E5 17 23 49 77 9F 04 E0 DD 0F
 C9 A9 0E FF F5 07 70 36 E5 98 F7 1C 62 D4 8A 2E
 83 34 76 6B 11 4D 23 DA AA 83 1A 7E 16 F3 D0 80
 1B D8 0A FB DD 9D 0C 3E 36 87 91 35 91 2D 3F 76
 B0 EA 48 F2 03 0F D7 BF C5 88 A8 F9 1B 92 91 71
 A7 C3 A5 E6 F1 A4 D8 36 31 59 AC BF 95 EB CD E0
 18 1B 26 EA 22 76 7C E0 60 8C 67 CC 96 F1 9E BC
 1B 9E A8 65 D0 38 D5 B4 4A 07 00 98 4C 65 B9 24
 19 A1 65 56 04 B1 F8 67 40 29 A9 86 76 97 35 4D
 97 47 14 96 A4 18 CC B7 77 24 0D 93 82 41 34 9B
 61 9A E8 B6 53 6B A4 0C A8 27 4B 14 1C B1 0D BB
 69 ED B7 05 D4 B0 47 FD E3 89 8D 9B 0F E0 AD A7
 B9 C4 63 E4 87 E5 2E 30 2C C9 CF 7B A6 E0 AE A9
 E9 32 DE 6D AB D4 7D FE 4B 22 74 F9 3B AE 8D C5
 9D FA 52 EE 5D 89 1F AE 0C 02 07 D1 78 FB 70 EB
 B0 6E 15 3B 6C B8 DB 8E 8D F0 60 A9 F4 53 81 BD
 71 36 88 4B 85 CC 28 AD 9A 68 C9 47 39 B5 84 44
 96 22 4C 30 24 71 18 58 78 4A 60 76 26 11 8F C7
 BD 68 0F D9 7D 72 A6 B5 3C 4A E6 E7 68 93 C4 C9
 A5 FF DF 9B AE 80 9C D2 1D 26 51 D5 07 6C 23 79
 70 E7 F5 62 20 53 28 F4 BE 0F A8 00 56 80 BA E5
 C2 D9 0A 46 0D E9 48 EC DB 9D 50 39 5F 80 84 EB
 B2 58 6F A3 23 99 08 12 9D A6 B7 CE 6A A3 EA 25
 56 14 C8 0A 75 65 FA 2A B7 A9 6E 1F D3 23 CB EF
 EC A9 B1 D1 2D 54 B8 84 16 32 9C C7 CA F8 69 D6
 1B 3B B7 E6 B0 C7 06 35 22 AF 04 65 C2 F7 D0 D5
 62 67 52 C0 B2 54 B0 1A 80 21 B5 C2 9F EB 8E 0C
 2F F7 48 76 3E 30 0D DA 8B F2 22 55 5D DA F1 B6
 B7 84 45 9E 47 13 B8 3F 4C 10 60 A6 A2 6F 4E B3
 B9 47 93 FB C1 16 E3 CF D9 B6 58 B7 01 AA 37 24
 0B 81 C2 9F 04 3E 1E 36 AE 98 F4 DF 93 DC 06 C9
 CB AE DB A1 7B CE 0A 12 25 1F CD 5B 34 27 E1 11
 14 8C DC BB 9C 7F 9A 78 CA A7 6C B9 91 77 F6 66
 92 D3 D2 2F E1 11 07 03 18 CE C2 4D 13 AE 83 73
 12 2D C1 43 D1 0C 50 86 53 B2 01 86 A9 7D 91 07
 50 43 DC B1 E3 FD 2D 57 2B 9A 9C 44 F5 60 44 32
 EF 37 AE BD DB 59 8B 70 D8 23 C6 6D 11 D1 F8 85
 7F CD 8E 3B 38 1A 09 A7 09 81 1F 2B 53 B8 DF 9B
 48 65 23 FC 60 81 0F F4 42 55 73 73 AD 07 17 64
 26 DA 1C B0 6C 89 96 1C 27 17 3F DA 14 AD 8F 24
 21 CD FD 1B 7E 0B B2 14 B5 88 2D 2A 1B B7 5A FD
 A9 F3 B5 F3 EB 91 F5 AC C9 73 F9 19 41 99 60 8B
 FB 08 E9 BA 1B 7F 38 68 37 C0 76 0D 79 46 03 A8
 37 55 AC 75 61 D6 0B 21 65 E3 9D 31 88 68 92 DB
 58 57 9A 33 4A 99 82 7B 81 83 79 1F C2 F8 D5 7A
 DA DB ED C9 5A 6A A8 BE AA 5D EE 9D 61 18 C7 2F
 B2 64 B9 6B 6E 31 F9 E9 55 D5 CC 83 DF C5 49 34
 28 88 8F D4 DB EE 1F 6F DA 8A 93 F2 73 5D 86 90
 1D 9D 39 4C 4F EB AA 73 EF 14 4D 56 6E BA FD 46
 7E F3 7C F2 64 18 32 33 75 54 1F E7 C8 2A 4F 45
 39 8E 5D 03 D0 A0 05 68 AD 97 EC 11 15 74 54 D9
 C9 7E AA 19 2F 2F A2 E1 14 B8 87 A4 18 49 99 59
 A8 BD AC 35 15 C1 07 C2 53 24 B1 70 D0 97 4D E0
 FE AE 9B 63 6A 66 7C 4E E4 53 42 2E DB E9 78 0B
 1C A1 A8 E3 9C CB C6 27 72 3B 90 FD B7 EB 34 88
 5F F7 80 A2 5C 32 95 FC B7 DE 6B 45 46 D2 8B A3
 9F 92 90 85 FB CD 9D CE ED 44 5F C2 5F BD A3 F0
 F9 28 65 97 F5 44 84 5E FB 81 FF F3 5E C9 93 EF
 79 F3 FE DD 68 B0 F3 87 57 6D A6 05 B1 EC A8 77
 0A 0C 1C 6B 42 80 E6 80 9D 58 B6 A7 8C A9 C9 D8
 80 C8 6A E2 20 EE BD 1C C6 BD D2 59 DF AF 1F 4E
 94 2E D3 DB D1 31 4E E2 68 1C B6 DE 5A 83 6A DE
 D9 20 22 F9 8A C2 2A 71 5B DA 7C 8A 25 8A 45 5A
 60 46 AF 67 44 2B AC 37 22 5C DD D0 2E 84 C3 52
 C4 BA 58 3E BC BE 74 1C 51 6E 6C 5B 6C EC 21 7A
 AA 82 A4 10 A1 11 F4 14 D5 14 B3 02 C4 50 C7 A2
 4B D0 34 96 A1 E5 C0 61 AD A3 F2 85 09 3F C4 AD
 73 3D 21 05 74 E4 28 01 9A 05 30 A2 13 BC B4 B1
 DC B1 93 E1 79 0D AC 0B C0 88 06 99 EF 8B F6 97
 AE 9D 2C 81 0F D5 16 F0 96 EA 03 14 B9 49 75 63
 E1 E9 FF 9D 57 9D F3 4A 7E CE 2B 9F 70 D0 73 9E
 93 E7 E8 C4 54 39 2F D6 6C 0C B6 B6 7A 53 74 3E
 63 C6 1F F6 71 3E 98 15 64 A9 8D 4F DE 62 0A 50
 A8 23 04 D9 69 F3 C1 6E 6C EC 3B A0 7D 9F EF 22
 5B 7D B2 D8 3F 6D A2 66 2B 17 43 80 40 62 49 3B
 80 6F 48 14 2E ED DB F2 DF 51 3C 7D 1B 14 CA 18
 4C 28 D2 8D CD CF 08 25 E9 A5 44 81 2E 4E 8D 24
 DA E2 3F 64 82 29 57 13 FF ED 6B 77 FB EF AD 9A
 5A E7 11 C0 50 95 EC 3B E7 FB DF 0B 39 12 82 64
 A4 52 82 2A 43 3E AC 27 F5 77 AE 2E FC A9 AC DF
 E6 1E 0C 57 FF 52 1E 20 CD 37 43 EE C1 30 D7 75
 85 F0 4A 9D 52 FF A9 8C BB 94 7E 6A CF 59 69 D7
 CF 45 07 00 4B C7 2A 28 C8 65 6C E9 9E EB BF 7A
 1F 47 E9 EC 1D 19 C7 6B 74 37 B9 C6 2F 3C 76 13
 EE BC 67 FF 8B 21 81 E9 71 53 FA 4E BC 70 9D D1
 63 DE CE E3 73 B5 43 38 60 60 9C 77 5A 61 84 2B
 1C 9D 2B F3 9B 26 7C EA 27 2C 19 02 03 CA 73 F2
 CE D7 EC 1C 66 48 0F 18 24 CE 2A FF 01 03 35 34
 BF BA 0C 38 5D 49 AD C2 68 E4 40 85 07 5A DE D9
 A8 A5 A2 D0 9C E8 EB 8E EB D5 FC F8 E1 C4 58 E4
 A9 E5 7C FE F1 62 AD EC 95 C4 90 5A 7F 42 B4 67
 E4 52 C4 C8 93 0A EB 89 4B FF EB BD 4B 06 FD 45
 D4 CF F3 8F A1 AD 0C DC FA C8 2C 3B 22 5E DD 6A
 AC BC 84 D7 FA 04 E7 BA CD 2D CF C3 E4 4B 79 3E
 A2 04 D0 14 B8 C6 9E 32 20 38 F1 47 EB FD DF 40
 EF 16 7C 11 2F 1C 6C 41 2A D2 85 1E 9A D4 D1 D4
 38 8E B6 A6 7E 88 83 54 BC 3A EE 28 B9 2D 93 C9
 4F 0B B6 36 E5 72 87 68 04 2E FC 76 41 09 4E F6
 0F 40 5E 5E B3 BF 84 79 EA 31 FB 9D C6 5C 6B 1C
 AE 2B 34 67 FA AE 92 8D 95 28 91 B9 42 29 3C 8B
 E1 48 03 52 77 5E 36 CC 8D 3E 3B 9B 8D 83 4E F0
 1B 4A 11 D1 76 E7 0F 9A DC D9 EA 3D 05 FE 65 88
 1F 00 6B 75 41 C6 5C A2 48 DD AB 18 CF B7 1C 6E
 A7 F8 87 A8 49 04 46 DF FF 74 A3 DB 3C E4 20 8B
 F5 6F 3E CF 30 DD C5 26 49 94 C2 B9 DB FF D9 B0
 97 F0 88 C1 29 85 D2 B1 C8 88 77 7D 28 1F 1B CC
 32 F4 8A 8F 99 7F 50 A8 E7 B5 08 B8 B8 02 A0 5A
 B8 13 BE A1 1B C5 6E D2 90 82 22 90 FB 8A F6 F6
 D4 3A 04 25 3F 65 48 A7 A9 BE 02 0E E0 93 3E 02
 BD 07 AD 73 C0 2E B9 10 59 33 95 4E 10 2C BD 44
 6F 4F 8A 8E 78 23 0D A6 18 E0 84 E0 EB E3 08 72
 6C 3A C5 83 8D A9 3E CC D9 D0 D6 04 EC D5 2B 24
 90 FB A6 8C EC 6B DA 4D AD 21 C1 6D E8 88 3E 72
 B4 FD A8 AE 20 D8 29 84 95 CD 3C 86 BB B1 6D B5
 F3 DC CD F4 D1 F2 7D 68 8C 59 4E 1B CC 8B EA F3
 19 E7 F5 02 25 A7 E4 F0 43 FB 0B 5D AD 70 10 D2
 76 67 97 D2 79 64 49 4E 78 8E A7 F6 79 43 31 C4
 DB 40 6A 13 42 AD 45 28 74 9A DD 08 1D 3D F9 64
 91 CB 49 3B 60 B4 16 EF 0E 56 11 FC 73 22 76 2F
 25 D2 2B DC BA ED 33 D1 C0 60 9E FC 77 E2 B9 DF
 AE 69 9E D3 E0 99 12 A7 7B 93 26 B6 FA 30 75 B9
 EF 45 19 CE 50 D6 56 C9 7A 6A 8A F5 19 E2 1C BB
 A5 D8 95 51 EC 09 16 99 42 98 DD 9C 1B DC 26 82
 79 9D 16 18 44 F6 10 06 05 DB D5 11 D3 B2 2A 7B
 7C FD A0 B2 D4 E8 18 4B 52 13 C2 E9 67 78 39 4A
 AA D2 64 77 73 40 F9 D2 36 CE CB 44 FF 26 57 95
 7E 44 34 93 3B C8 00 D1 95 FD 7F 08 DF 3A 7F 7D
 2B F9 E7 B0 2D 71 D5 15 AB 3A D2 E1 D7 3E 4B 34
 25 09 97 A7 40 BB DC A9 D5 E2 5E 6B E2 E3 41 FA
 EF FF 78 BC 5A 83 72 AB 68 1F 59 A6 8D 54 B5 22
 89 35 42 8C D8 F1 4E D0 D1 E3 6E 44 12 26 9B 5E
 9E 6A 36 57 78 8F 00 42 ED 07 F8 34 8F E9 AE D0
 08 81 EE 5C 60 3D 28 25 ED AB CC 9A 38 D9 F5 D9
 CC 99 1E A0 3A DE 99 E9 5D 6E 00 5A F1 1C 43 45
 04 4D 37 12 22 3C DD AC 69 F5 9C E6 71 59 3F AA
 ED 16 E6 F3 35 A3 72 D2 8B 25 B2 B7 B6 28 52 CA
 86 E2 96 E3 14 62 89 A5 72 23 5D BA B4 97 1B 58
 08 EC 97 79 A3 F9 9A E4 F7 95 5E A1 55 E6 0F 66
 0D A2 DC BD BA 64 20 B9 FE AE CC 61 98 D4 3F 28
 77 22 16 9C 16 04 13 5C 4F C0 16 74 05 16 44 10
 F1 93 C3 D8 82 70 01 68 CE 79 07 9E 0E 84 86 13
 DE 56 DD FB 42 14 AB 91 35 F9 62 CD 5B 82 8A DD
 76 71 0D 68 F9 3C 27 F3 BA 2E CF 57 70 CD B4 37
 8F 7B 58 62 63 94 C3 42 19 E3 7A 49 60 A6 02 83
 48 8B 03 D9 D6 D6 BA BC 0E EE F8 14 C3 B2 59 E6
 01 93 CF 39 AF 97 57 01 57 D6 4A C1 66 7B 53 EE
 12 BC CC 08 D0 89 3D 58 C2 F0 69 CA 32 A3 C7 CE
 7E 00 53 FD 6F 0A 35 E9 E5 75 E7 DB 73 C3 C6 15
 09 24 3D 10 E0 2B E6 AA 7B 1B 03 59 FB CD 24 D1
 54 CD B3 09 F8 59 19 B8 2B 63 B0 04 A7 BD 43 BE
 9D 61 B9 74 BC 1A 0F 1D 83 34 C7 AE 54 8B 5B A7
 6B 1F 5E 79 2A 42 AF 90 79 4C 88 37 E1 6A 53 0F
 13 FB CE F8 F6 75 05 49 AC 14 CD 58 6A AB DE 54
 3D 39 A0 63 A9 1F 5B F7 52 82 CC EC C3 23 4F 29
 62 56 BF E1 7C B5 2F 2B 97 A1 3E 1C CB F5 3F 24
 DD 14 55 CD 92 23 F7 82 22 65 92 AC EB 1A EC FF
 7C CF C6 6A 97 F7 78 E0 9D 1D 07 35 E5 C5 4E 3F
 D9 28 D1 AC F4 62 51 1C 43 FD BD EE 3E 6D 93 B9
 85 92 0C F0 6F 6A 23 00 31 3F 24 99 7E 26 63 24
 29 5A 49 5F AC 58 57 2A 76 38 76 70 84 8F 65 99
 04 84 A9 A7 73 8C 96 21 F2 E1 50 00 EA 8E 08 E9
 E7 63 90 1C AF 2E 5D A4 7B A4 F7 FD CC 42 9A F2
 EC 5B BD 10 56 03 A4 F9 4D F3 E1 96 87 30 27 FB
 7C 69 D1 2F 1B 7B 8C 49 AC 08 4C 7C C4 CC BE 5D
 A1 17 B3 BA 1C BC 92 D3 D5 65 32 C6 A0 F5 C6 A0
 7C 6C 4A E6 07 39 54 EC 8C E8 F4 68 A5 3F CC B4
 85 3E D6 21 63 9A 00 BA 43 CA 1F 47 69 81 CC F7
 25 15 87 9E DE F5 80 B6 24 0C FB 69 1C E9 ED 82
 DB 1B 19 4C 95 27 FE AF F4 86 07 A5 BD 01 BF 6A
 64 2E AF 3F 55 AA 35 75 B0 EE 4C 64 F0 A5 2C D4
 B7 57 56 E1 32 B5 61 30 07 BF 58 22 78 8A 9F 0E
 F7 F1 3E 51 0A 1A 27 CE 09 77 58 F7 85 C8 4B A7
 F3 28 BF 8B D3 6E DA 13 7C 61 57 7D 29 84 D0 E0
 C9 EA 7F 47 E2 3C 06 91 46 31 C7 16 33 6C C8 88
 4E 7C D1 A1 98 CB B2 0A 5D BB A2 5B 1C D8 CE 09
 7C 0C 7E A4 15 DB 8D B7 F6 8E 5D B1 D5 5E A0 3E
 05 7C 96 A4 FB C5 45 34 61 10 DD 13 6B 29 1D 7A
 61 2A 28 20 34 A3 63 D0 4F F0 7C 72 01 CE E8 76
 86 F5 7B CA 93 78 FC 34 E8 16 8C 85 8C 15 2F C5
 38 03 BD F8 69 4D 5C BD 71 60 9F D7 33 85 D1 2E
 34 53 01 B0 82 4C 81 52 45 9F DC BD 98 83 AC 8B
 5C 7C 90 4F A4 D0 00 2C 67 30 9C 50 6D 2F 10 DF
 EE CA 1C 11 F6 81 3D 32 6A E7 56 07 8D 12 49 88
 EA 43 30 BB E9 02 52 34 B4 31 8F 9D AE 79 75 AF
 AA C2 80 D0 D8 A2 82 BA 5F 81 FA C8 29 F0 C3 A2
 E9 83 12 99 B1 B0 98 82 01 55 65 DC 87 19 92 EA
 78 89 C1 15 1A 9C 6F C7 EB 28 E0 E6 5E E4 11 5A
 A0 99 1E A1 6A EF F2 F6 1B A3 64 58 25 A3 B0 F0
 71 D4 55 E5 1B E4 8F B0 2E F6 E0 25 53 6A FD DD
 7F 59 37 64 55 14 B5 30 71 99 88 20 C3 C0 CF A3
 61 4E CA 41 6B DA 2C 26 A7 F7 FD 4F B2 0E E3 46
 F7 3B A6 79 01 8C 98 47 62 AC 54 75 2E F9 F5 36
 75 D8 EB 52 25 5F 7C 48 31 F4 4A 8D 4B E9 87 1C
 8F A5 DE 83 20 AB A6 AA CD 0B D4 86 A9 E7 77 44
 D6 DC 71 FE 35 71 A9 1E CD 5C 1B A7 96 DB C9 23
 FF D0 17 FF 69 55 40 EA 6D 6F AA E5 5E 6E 8D 48
 96 07 0C 33 C6 F5 72 5C 5F B9 46 2A 3D C5 03 8F
 AD 28 BA AF 03 6D AC 8A 67 23 C8 E6 C0 A0 58 80
 DB 19 0B EE E6 2C DE 9B 8F 8C 1D 21 79 49 04 88
 08 35 8D 01 29 0E 2D D0 97 16 F7 38 94 2A E6 04
 77 09 E3 91 8E 24 13 80 D7 22 0D 1C 4F A7 2E 9B
 93 22 A8 1B 00 7F 69 1C 9D B1 F7 D6 45 1C 37 F8
 74 C0 DF D7 70 03 63 29 36 A0 1A 74 54 A6 73 9A
 B4 1D D1 97 1B 8D 35 1A 88 7F BE FB AF D9 9D 4A
 39 A0 B0 DC 34 08 A5 03 1F 5D 98 7E 17 02 C9 2B
 0C 96 92 58 C8 8C 9D C9 5C 0F B0 BC DD 30 54 ED
 B6 F0 1E CC 2D 32 18 AC 55 25 33 58 86 9F 9C 64
 2A 11 57 49 84 19 5E 80 3F A5 4B 48 73 51 F3 45
 70 DB 3C DE 20 CC B1 BC F2 F4 AE 29 9F 77 FB A5
 B5 97 00 03 B5 EF 79 7E B1 CD 1D 53 F4 76 AA E7
 89 60 90 43 06 63 11 13 04 5C BC 02 A7 16 CE 4B
 CC 86 07 5F 1A 5F 9D 25 F7 31 F4 6C 8A C6 87 DE
 7C 42 87 05 10 42 B1 AA C9 0F B6 3F 6C 35 68 F9
 12 DE 89 34 58 83 A9 29 99 D2 86 C2 3E 8E 0B 7F
 89 47 23 3E 90 98 80 E2 62 3E D1 32 62 A2 CB 78
 B7 3D 5C E2 EF E5 ED 56 6B 92 68 95 90 6C 52 E5
 E9 4A 8F 96 E0 4C 71 77 C1 F2 43 BF 98 33 AF D6
 78 5E C5 28 93 6B 90 9C D6 49 0B 8C 56 1A E1 1D
 CA F0 A4 1F B9 D3 31 70 BE 80 D2 42 40 4E F7 88
 93 17 F9 FC E3 AC E1 E0 ED A1 EB 3E 1C 3E 16 59
 8F A6 48 DE F3 A5 4E 6A 51 08 31 25 4E 67 9C BF
 4C 98 7C 97 72 30 E1 7A DF 2D FA FC C7 E5 77 82
 44 03 65 08 B9 1C 1F 51 B2 77 1E 24 4A 69 28 97
 99 B0 F7 8E 87 30 5F 2D 13 AE 30 5A 07 2B DE 5C
 ED 73 F3 6A 39 B3 30 00 B6 72 59 0C C0 FB 3E D6
 EF F9 46 49 6B EC D0 6F AE A2 38 56 B9 0B D8 99
 E9 7F 51 F2 AB EE 28 B9 AC 17 77 6A 5F 10 E7 17
 E4 CA 5C 6A 0E E3 AD 04 6B AE 49 21 40 5B 1D FC
 04 C3 FF 56 33 E2 22 66 38 29 33 CA E9 02 70 28
 EC B3 3E F5 EA 0A 97 45 AD AE F3 1F 27 C9 CE BE
 AD C8 07 A8 23 B0 57 8F 93 92 7F A5 DD 46 B6 BE
 2E D0 1B 45 10 D1 AD E9 98 E4 95 5C EB 1B F1 A1
 72 6C AB D3 AF 31 E0 7A 8A F7 EE ED 06 B8 17 7C
 D9 56 65 4C AF CA 39 1D 05 7F C4 AE 11 31 8B 87
 CE 5A 43 80 3B 62 3B D4 B0 13 64 D4 23 F7 0F 87
 A7 DF B8 65 1A 3E 0F 8F 73 F7 B0 43 75 03 52 1A
 2C BD 4A 16 1C A6 2F 7C 12 56 75 2A 10 23 C5 07
 63 66 FD 90 AD 16 89 0F C6 D4 0A 60 3D BE 77 BE
 A8 8C 3E C4 9E 38 C9 96 E6 7B 4B 6A FB CF 2B F0
 90 6C CE E1 76 8F A8 11 4C 4C F1 C5 16 5B C3 B1
 09 3B DD 3D FF AA 61 74 C3 F2 C7 60 66 B8 6E 18
 C9 7F A5 01 44 EE 67 87 05 70 BD 00 68 7E E4 7B
 21 C1 E5 FF 45 24 B7 53 19 23 E8 9F DA F6 88 C4
 E2 A2 CC 1D FB 8D 7F 8E 3C C6 19 C7 91 01 8F 28
 31 91 9C 45 29 07 9E 55 34 16 41 5F F9 4C 59 EC
 81 B3 CA 61 72 FF D2 76 E5 9A C8 56 78 BE E7 0E
 C8 8A 07 82 66 A8 A8 44 18 CE E7 1A 26 A1 81 0B
 0A 0F 34 22 83 98 18 80 44 FF 1A 02 0E C7 16 98
 48 5B 8D 94 A4 12 69 6C 12 F2 FD 0B 15 C9 78 A0
 4B A4 9A 69 0D 35 F7 EC DB C6 ED C5 72 86 42 B6
 05 4A 75 2F 94 E2 8F 64 4E 32 22 E3 45 F0 39 1E
 0F E4 44 54 0D 73 CB 5B C4 F8 D8 30 BB 36 D3 CD
 6D 0F 87 31 CA 9A 1B E7 16 35 B0 0C 4E D9 CC 83
 BC BD 7D 1A 7A 85 82 3F 67 76 03 98 D1 D3 57 26
 15 2C 1D 7A EA 27 A2 AC 9E D6 9D C6 FC 1A F2 D2
 41 79 BE CB C6 A1 DF 8B FB EF 6A 80 E9 78 CF 03
 64 6F 75 63 E0 D8 0C 20 0C A4 50 37 31 82 E5 07
 92 4E A2 99 51 98 CB CA 52 3E CF C5 97 0E E8 80
 FB 77 AD 26 27 78 F1 1F C3 AD DB F7 F4 FE 31 02
 EF B2 37 D0 E6 94 C7 B1 C0 B0 84 3F 3B 86 8A D6
 86 7D 03 72 A2 29 09 74 71 92 77 81 97 AB EB E9
 0C 0E 6C 2A 81 42 A7 63 42 06 C9 DF B3 41 4C FE
 54 B5 34 51 5A 30 57 46 D2 A6 CB 0D 8B 3B 53 0F
 BE 18 5C 12 0C 38 54 6F BD C7 4F D3 9F 30 19 B2
 54 84 67 D9 66 0B 4C A6 8D 12 02 EE 97 7A 96 49
 63 DC 75 2C 91 D7 9B 88 8E DE 58 23 9C 14 08 0A
 F6 70 2E C1 83 81 5A 96 F7 38 2A 38 80 80 6E AA
 18 25 CC A3 3D 36 1B 29 41 E6 CC B2 FB 7D F3 8D
 B7 76 63 54 A4 93 1A 9D 58 7D 83 80 F9 15 6E 5B
 D2 30 5E A7 1B 05 4F 65 5A 5F 80 4F 41 27 26 06
 30 B1 7F E2 AC 58 29 60 BF AD B3 25 FB 9B 20 03
 7F 74 F5 8E 2F D2 8C C8 CD 46 5D 01 F6 C2 CA 5A
 65 E4 84 71 D6 CB 82 4C 3F F8 4F 45 55 49 B3 0A
 F5 C2 96 26 CB 18 25 F5 79 8E E2 5E 89 65 C2 63
 3B EC 26 ED 79 32 69 53 FD DE 21 5C AA 78 36 FD
 04 47 69 E5 F9 03 19 EF 51 CB 32 B6 9C BC 02 44
 8C 1D 1C A1 3E 94 F7 D9 A4 F8 4F 8C 3C 9D C6 01
 A3 F7 81 27 2C D5 85 12 8F 96 CB A4 90 9E D5 E8
 7C 31 30 D5 BC 7A D7 27 1A AB C7 9F C2 9D 49 AF
 28 87 4D 4B 9C CC 58 7C 49 1D 5D 52 52 CB 6A 0A
 1F 3A CB 70 2F 66 A7 D9 75 47 B8 60 DD 9F E8 F8
 2B 31 A5 2B 03 AB E9 5A C4 C6 75 BE 5A 54 F9 DE
 F0 5E 8A 98 E2 E1 8C 1D CB 2E E8 59 EF B6 5B EC
 25 0C C0 3F 85 59 2D CE BB FD 3C FE 9F 74 AD 23
 84 98 68 1B 61 8B 96 01 38 EC B7 C4 2A B8 AF 18
[...]
 B4 44 FE 9F E4 8E 2D E9 3F 8F E2 D3 23 45 25 51
 67 9A 8B E4 39 66 4C FF 14 41 93 F6 E6 0B 06 F4
 D4 99 BE 2C D9 C5 AC 24 BB 5A A8 6E 3F 72 14 70
 1F 36 83 C9 60 6C A0 1C B9 FB 05 34 90 CF 79 F5
 D9 E3 07 F5 33 1A 9F 76 F4 E8 71 54 2F 3F 33 E9
 2F 3C 4F 49 43 D5 31 7D 81 2F 23 85 46 38 B1 06
 94 FB 63 2E 52 EF 0A 4C 63 92 38 F9 AB C6 20 80
 FC 7C 63 0B 7C B0 0B 9C 62 98 33 2E B1 AA 1C F6
 78 53 AD AF 5A 46 D1 7F 23 70 48 A5 A7 93 70 34
 EC BE 1E 2A 4C 8F 58 CE 58 24 E7 E3 2A F9 92 9C
 82 DD 0F A7 A2 13 9B 53 02 1F 10 37 69 2B 1E 40
 E4 64 55 FD 68 30 BD B2 9E 1E 74 46 F9 90 52 9D
 B5 9D AF BF 6C AD C6 9B F5 52 D8 FA 23 0B 46 2F
 15 8B 2B EF 30 9F B8 AB CE 9E FA 24 A1 9B 97 54
 FC E1 2F FB 3E 42 D1 05 AF 58 61 49 96 37 C4 2B
 4A E5 89 0F 63 90 06 D8 B9 8E 87 22 8E 29 80 4F
 29 F1 8F D6 2B 44 91 01 6E 45 46 F0 A6 76 A8 22
 94 2B 54 03 B8 40 B6 4B EE B7 F7 AE 03 15 01 AF
 AA 28 84 A4 6B 11 FD 22 B0 11 81 FD 5A D8 71 15
 7E A8 3D 1E B0 6D 09 D1 0C 54 99 DB 9B 1F 13 47
 67 4F 0C 14 99 5C C8 7A D0 3C 08 5A 2A 06 C9 56
 16 B9 CC DD 57 23 70 D2 F2 BE 67 D5 6F E0 81 27
 95 1F 8C 30 A3 E6 D9 DC 70 D7 94 13 4C 39 67 47
 F2 83 95 2C EE 64 57 35 E3 5D A6 EA 74 4A 86 30
 1E 71 2E DB 16 26 D0 62 02 48 BB A9 30 28 DB 63
 0E 2B C0 17 C2 F6 08 77 2A A7 E5 06 6D C2 A6 8E
 9C 7B 11 BD 07 D8 DD 8D E0 48 E6 02 EF C6 5D F9
 0E E6 36 FF BD 17 6F B5 68 FE 21 38 B8 53 7E D7
 37 4C 68 58 C4 86 A7 33 90 4A B8 EF C1 5A 73 CE
 E8 44 8A F6 C1 89 70 2D AB BB CF 79 D3 F3 84 2A
 E6 B7 0B B7 5B C0 1B E9 11 40 53 74 48 41 6C 47
 00 19 F3 83 FB E6 23 9E 24 5D F9 11 51 45 57 BE
 0D 2F 7F 0D 7F EC B1 55 FF AC B9 18 AF 63 8C 03
 76 B9 E3 A5 55 A8 00 41 3D 9F FD C5 8B EF 0A 3B
 57 B1 4A 3D 3E 77 B3 C4 90 3F 55 BC 1E 14 B6 80
 20 F6 48 28 58 AE A8 2B 43 E2 44 64 34 7D B3 C2
 C7 D5 62 CC 02 5E C4 AF 88 8D 80 8E 96 6D 63 2F
 88 A9 9C 06 1F 06 ED FD E3 DC 52 AD 72 1D 17 FC
 AE 03 46 0C 43 FE C4 6F E3 AE 32 33 55 CB 8C 5F
 38 FD 93 75 CF C0 55 6E 25 C4 ED C1 27 13 33 2C
 99 BF 42 6D 74 18 AA 33 25 7D DC F7 10 38 A6 D1
 D0 F7 91 C5 75 1D 0D E0 C6 B7 9F 0A 3A DB DB D9
 80 47 70 81 14 D0 9B 73 42 33 A6 A9 84 75 4D B7
 41 22 FB 72 E5 B8 0A D3 D0 E4 E3 DB 79 A9 98 60
 5F 89 87 83 5A 85 8D FE 81 01 FD 15 56 D2 51 C1
 D4 AE 15 0B 6F 52 8D DC D6 3B 6E C2 DB F6 90 F1
 5E 68 16 F7 9B 3D B6 C8 FB AD 08 17 AD B5 5F B5
 58 1F 35 1B E0 6E D2 76 34 34 7B 56 2F 6E 3A 39
 3A 44 F1 CB 5C CE 55 E9 AE 64 D5 59 48 65 5D 52
 4C D4 E9 F6 86 7A FC 96 88 1A 53 D3 AD 33 B3 0C
 8C 6F 86 7F D5 32 4D BB 83 74 71 41 54 F3 1A 58
 ED 95 75 EA 5A 25 CD 86 FF BF 77 FD 6C 18 7C BD
 3E FC 35 02 58 1E A3 9C 7F 9A 4B 71 D0 66 1A A5
 3C 3E DF 73 DE 26 AF E0 6B A7 AC 2F 0C 39 77 C2
 40 65 1D 23 C5 12 2B 12 3A 65 11 A5 F5 D7 53 71
 ED 1B 50 DA 57 EB 9C 48 E7 AA AA 7C A2 F8 48 38
 46 8E 85 E8 58 10 DF 07 C5 B7 11 D0 15 9E DC DA
 17 79 83 AB C4 F7 2D E9 00 80 69 F0 2D B9 52 2B
 1E 1F 1B A6 05 EE D8 80 39 23 43 86 F9 F6 8A E3
 51 D7 1B 52 FF AD D1 ED C2 C4 61 9B D7 64 B1 FD
 84 24 EB B9 8E E0 23 58 7B 4E D5 4A C0 A3 FD 0E
 21 5F 23 5E A5 35 43 37 57 ED DB 14 CB 9A 04 B1
 83 C4 6D C5 85 FF 54 57 90 45 40 1C 88 36 5A 14
 D8 AF 17 BD 4E 57 BE 6A 2D 59 52 15 80 B3 1F C3
 1B 89 6A C8 F9 19 EA E4 E6 FF 3E E3 C0 E1 21 DC
 A9 21 7E 59 0B 88 2B AF AC 80 DE B8 F3 C8 A6 DF
 1C C3 75 CA E5 F7 CF 5A C5 5D C8 6F D1 68 2F 5D
 5B 69 FE 9D B7 86 05 78 F4 77 1A CA 22 3A 1C 40
 E4 20 CD 94 CC DF A1 B7 57 BC C0 4D 58 0F F9 80
 D4 EF 7D 4E FC 79 49 97 A9 3E 50 94 9E CA 4F 33
 C4 7A 36 47 9B FE C6 AC 95 67 9A 0D 1C 96 10 D2
 C3 4D AD EA 2E 04 61 36 62 10 9F 98 96 63 BD 31
 74 BC 47 7E 97 37 C8 35 6B 57 B3 9B 16 05 C2 3B
 8B 28 DE F7 2E 26 73 2A AB B3 96 C9 1C 2A 9F 51
 F9 78 17 27 F8 D8 D3 22 94 44 D6 CE A9 92 10 6A
 E5 F6 BD 68 44 82 22 A5 9D 79 B9 0B 3A 3E 85 17
 86 95 54 06 F4 AA 6F 37 4E F7 33 87 92 31 7D BF
 75 EB AD A9 74 84 B7 E1 D7 8D DA 11 2C 20 37 B5
 79 73 30 22 9F 45 35 BC 2C DD C3 D8 D3 84 CE 23
 1E D8 36 D9 76 1D B6 EF 82 F7 8B 0F 51 F8 4B 3C
 7A 66 B2 59 5F BF B5 E6 A2 B1 27 C6 E9 3D 78 58
 D3 8C B0 71 1D AE BA 26 4E 11 7C 5E C0 E1 9E 15
 74 F8 86 90 D7 EA 13 DC 07 93 A5 68 D4 BA 6E E9
 04 2E 9F C5 51 38 86 46 46 57 C3 7E AE D5 71 3D
 AE E5 75 BC BD 9E 6C 91 01 9B F1 0B 64 4D 66 F2
 8C 73 7B BB 66 F2 72 B1 AC A3 81 CF 28 E3 8D 78
 DD AB ED 34 80 B5 19 19 19 FA 10 F3 96 31 D7 D5
 C2 B8 1D DA 37 6E 97 49 12 68 DA BE C5 5D D5 F9
 0C E1 20 85 59 A0 98 13 BB 42 AC 6D E7 5A BD 01
 83 A0 45 41 4D A2 D2 43 32 B7 EA 50 4E 21 6E 0B
 4C 07 D0 0D C4 2E 15 64 A4 90 5C 4C 0B 9A 70 66
 0D 14 4E EF 06 8C 66 A3 EB 4E A5 85 80 B3 10 E1
 7F 86 EC B6 77 A2 56 3D 20 42 63 9F 6B F6 67 15
 3C 77 65 21 DA 87 27 AA EB 0B BF 65 AC A0 85 E0
 80 3B F8 CE A1 86 BD 4E 3B 7A BF 4A 26 EF 57 D3
 B0 C1 1B 92 9C 81 D3 F8 4F D1 A4 CB C6 66 58 2C
 8F 1A 0A 39 67 43 3F AD 94 48 44 57 55 B5 40 B0
 E1 81 E4 53 CD DF 40 B2 77 CB F5 BD 83 B2 43 49
 B6 F9 76 9E A0 C7 8C 1E 84 E5 5A E3 6B 64 75 A8
 2B 76 A1 1C E8 79 9B C4 F0 BA CE E5 E2 2C 38 E2
 7D 05 C0 C6 D7 09 DA 5F 94 BD BB 39 A1 C9 DC 4A
 6A 4C 99 C2 A2 D7 77 53 91 85 9F 24 A6 42 5F BF
 04 13 B4 6A 4B 4E 38 C4 31 4D 32 9B 3E 16 64 0B
 25 E4 C1 88 80 7C 22 E6 B8 AF C4 45 C9 AC 79 14
 51 1F 1A 8F 06 B6 96 D1 6F 6B 78 12 F9 82 B5 46
 E5 17 20 FB CF 47 81 BB 21 3B 50 BD B4 13 99 ED
 E4 CF CB A2 0F CD 7C 61 74 7B 1F 76 09 4F 62 82
 56 48 B0 7B 8D EC 3C 54 DD 85 07 6B 83 6F C1 FD
 B1 6A 4A 76 75 83 08 49 CC 94 03 EE 97 54 F0 4A
 B4 F2 52 5F 1E 2F 36 F2 C2 19 CC D7 96 26 26 6F
 86 2E BD 88 09 18 ED 6B D2 03 65 15 00 FC 18 30
 A5 7D B1 9E D2 A4 FA 91 0F 8B E3 3B 39 65 4D 85
 43 8F C1 44 03 06 B1 72 CB 3C 8F 75 98 6C 2E B3
 F6 04 E0 14 5A 44 26 C4 39 11 A4 3C 5D D6 40 71
 4E 37 77 06 6B D9 D1 51 5F F1 DA 78 B8 71 81 E7
 8A 0A CF D9 D0 5D 85 99 B7 42 DB 53 B0 9B A3 F0
 48 16 99 99 96 FD FD 20 8E D5 2C CB 08 55 30 67
 BF 61 0F DF F8 34 D3 C5 83 20 9C F6 88 51 5F 32
 2B DF 5B FD 4B BE 55 47 A7 91 87 2D D8 6D C0 3C
 F3 DF 86 F5 71 DC 70 A7 CA 1E 6D 6E 91 D3 13 C7
 6C B5 3A 64 DE AB 04 45 B8 55 1B 25 93 53 C0 E1
 69 32 AB 30 31 8E 7F EE 6A 0F AE E2 09 8B CD 53
 5C 25 AB A6 1F 32 16 66 E2 42 60 C0 2F A5 A4 84
 E1 95 30 78 9B 57 A8 D2 E3 E3 9D 38 F4 FB AC D9
 50 4B 2E 01 D4 F7 07 62 2C 78 4F DC A0 EA FC B0
 59 92 BA 5A 35 0B D3 60 A1 FB 72 AB AE F9 DA CD
 8D 21 96 8C 58 31 39 CC A3 18 4A 96 53 05 59 04
 0D 76 5F 3C 37 34 EA E1 77 59 39 14 5E C1 3A F0
 D0 4E 86 CF CF BF 9C B2 14 23 1B 5E D2 38 22 30
 27 3A 54 20 2C EE F6 11 A3 65 04 25 D0 F6 D0 9F
 04 6B EB 7A 82 96 3C 90 82 81 D4 FD C0 E0 43 A3
 C7 02 BB 31 20 7C E7 DC 09 98 A1 8D AC 37 C5 AE
 15 7C 13 5C A3 FA B6 80 E9 58 1A 96 A0 CD 5A 0C
 7E 45 7E FC BC 96 FB DC 9C E1 3D 3C 36 18 AC 58
 FA 5B A3 25 39 82 80 1F AF 1B D4 FA A8 AD B4 8A
 B4 16 44 03 32 35 32 C1 6F DD BF EE 71 3C 4F C4
 80 DA ED EB 33 0F 8D 2A 40 97 09 70 EA 82 59 56
 1D 06 F6 49 45 1A 05 14 0F 19 85 68 07 B6 9E 83
 70 0C 03 DB 2D 95 3F 0C 38 4A 2D 23 28 00 68 66
 30 E6 36 45 8A 99 86 16 77 DF BD 3C EB 6E 66 47
 76 3D 68 6D FA 92 14 15 78 25 34 FC BE EA 12 66
 A4 FB 7F 0D 32 ED 30 E7 71 B0 F7 66 CC 23 0A B6
 E1 BE 03 86 AD 61 97 D2 65 4D D0 C5 12 B8 6E 05
 7E FA 8F 95 4C 55 C6 D2 DD C7 B3 9A BB 22 D9 68
 67 D6 5C 90 C2 61 C8 0F 69 79 A6 FB 13 D6 3E B2
 32 EE A0 4E B7 B0 DF 30 6E DD 01 33 10 F9 89 D1
 D4 48 A5 23 09 67 58 44 94 15 DF 70 73 64 EB 2B
 0E FA 0F 92 4B 6E D3 CA BE 0A 97 0E F7 E6 39 31
 6A C6 4B 3E D3 DF 9D 99 58 C0 39 FD B8 A3 DE 57
 4A 14 5E F7 79 7C BE 4F 2A 4E C0 44 A9 9F 56 8D
 17 EE 4C 2D 2E 9C EF 5A F3 CB 8F 28 75 04 91 03
 B6 1D 9B 9E FB EF 16 B7 1F 60 60 18 07 65 1F 7F
 D0 5D 8C B6 A4 3D AD AC 72 50 73 0C 4B 27 8E 1E
 82 E1 4C 6B 1D 36 9E 7E A5 25 E4 BF 87 8F 08 CF
 6A 1F FB 08 1A 85 89 3D AD AD 51 E7 A1 F6 2B 67
 D7 0B D0 E1 80 8F 4A 05 C9 3B 1A EE C9 D8 B2 27
 BE D7 D6 A7 14 F8 6C E2 5A EB 5F 26 83 18 01 38
 44 DF 1B C0 62 B6 67 F0 DC 44 EF 2D 6B 13 1B 06
 05 A1 A9 1E 25 95 01 E5 83 CE DB E5 86 4A 60 4D
 B5 34 DC 95 A3 55 1B 8F 0E 11 5A 10 0C 94 6D 56
 CD 54 15 54 2F 81 9D 5F D0 E3 60 F1 B7 8F A6 76
 AE 7F E9 27 41 EE 17 91 F8 CA 9F CB 06 89 A2 A3
 F3 9F E7 65 6E F0 19 E9 5D 59 77 07 4A E8 9C AD
 C3 03 41 23 A4 50 DA 78 CF 4C 58 21 25 83 B9 F5
 16 B3 E1 E8 A4 49 01 B9 F2 0A 96 F4 B9 A7 CB 5D
 84 5D 40 72 8E 16 C2 4C 1A 0A AC B2 61 A4 0B 49
 FD D5 59 04 19 AA 41 D7 A2 94 53 70 BD 1C E9 E1
 D2 65 91 97 54 8C DE A7 40 78 A9 28 6C D9 84 CE
 27 F1 DC 32 EE BA 48 DC 84 5A CC 6B 80 DE 59 A7
 32 CD D3 16 53 CF B5 BD A8 3E 5F 44 CC 71 7C 4F
 BE 2C 34 69 7D 18 48 AA DD 94 D9 46 32 F8 7F 71
 02 33 E2 76 A1 10 80 79 E5 07 0E 4C C0 26 A6 78
 CE 69 68 52 F9 87 22 80 2A DD 86 D1 4E 55 AF 73
 9A 8E 4C 33 19 1F 60 2E F0 2C 1E 97 E9 E5 CC 05
 C4 61 4D 91 FF 71 CC 8D A1 9A F9 69 09 B0 33 48
 95 86 BF 93 91 90 EA 4B ED 30 DD 01 C0 FD B3 69
 14 5D 7B 3E 3E BA AF 45 F3 2A 40 F7 B0 9C 10 44
 C2 7F 3E D7 B2 24 79 5E 37 0E F2 E0 B8 59 8A 77
 DE 39 7D 8E 31 88 7F 6D E2 F2 08 0C B7 53 13 EC
 54 2D 26 25 FB C3 ED D8 7F 06 6A 03 2E BA A8 1D
 07 B4 59 B7 C0 65 10 09 98 88 11 1E E8 4C C3 56
 24 E0 20 5B 3E 97 94 8C 0F 93 FE 9E 5D A3 6C 35
 FC DB 9A 71 A5 0D FE 13 C3 BE 9B 55 AE 3F E4 59
 CD 37 7E 7C 0E 55 73 C1 0A 9D E4 22 35 F0 DF 82
 E5 45 B0 FA DE DC FB 2A 4B 99 11 33 E0 B0 D0 32
 31 4A FF 51 B2 66 71 15 E2 6C BF 88 E6 60 E2 71
 09 91 20 20 48 CE B6 61 75 63 60 32 B4 17 47 F8
 98 C9 6F FC 04 6A 4B C6 DB F1 83 A1 E5 F5 85 FE
 F4 A6 B8 BC D2 73 AD 2A 26 48 B5 B1 18 7D 9F 9A
 EF 20 F7 D4 2C 22 5F 60 9E 0F 42 73 31 27 48 66
 5B B0 1B F9 B3 44 A1 D5 F1 79 01 DF 73 0C 0D ED
 06 28 88 44 A4 C6 9A D3 4B 91 04 16 B3 FB 9F 09
 DF E2 A0 B6 29 25 4A 46 00 3A 08 D2 39 29 53 BC
 08 9E 9A 1A B1 A5 D2 4E EB 3B 72 0F 9A 48 CE 22
 E8 27 7F 69 37 05 4C 16 1D E5 F3 0D 94 D7 37 04
 64 DB B0 DF 70 0E 9D 7C 65 77 FC 1A 6D F8 96 F1
 FE 21 A8 CE 31 E8 DB 76 46 28 55 35 0B D8 99 7C
 94 65 8C CB 1D 38 82 7B F5 81 5C 69 D7 18 59 00
 0B 90 2C 4C B5 73 FD 04 39 47 8F FD 7C 77 9D 89
 8B 98 29 7B FF 5B 97 E6 55 DB 7B C6 14 8B 86 77
 A0 9A 4D F6 83 54 23 92 0E EE D2 E7 FF B4 2A 5D
 26 C4 C1 9A E8 B0 19 9C 0D DE F0 4B 06 7A 48 59
 0B B6 03 5E 0C 05 F4 42 5D B5 E4 5D 7C C2 1B 39
 44 9C 57 28 EA F8 D0 AC 4B 0B CC B2 94 E3 76 A0
 5A A0 BA 01 37 2D 27 B6 69 B4 DF 01 F7 0C 3A ED
 4E E3 32 01 0A 2D C1 2A 9B 8A DB 15 0E 62 97 BE
 E2 EC CF 6D 55 9E 2F A5 FF 5E 95 5B 3A 2C 94 BF
 73 A0 99 68 D6 6D 78 24 77 2A C2 D9 AC D2 C8 E3
 8E 80 63 E7 98 37 38 C4 A6 DF 1F D8 D4 81 1C 7F
 36 80 14 02 DE 59 09 8B 36 78 E9 BF B3 1B 34 B6
 06 37 28 28 74 01 E5 32 20 17 59 81 3F 86 A3 01
 87 1D CF 50 09 36 DE 34 C0 2B F0 B1 E8 24 41 7B
 BE 56 2C E3 88 CC 16 6E F0 0E FA 33 9F 43 49 07
 59 D7 06 0A BD 5D 4F E1 D3 0E 24 C8 B3 65 04 45
 35 57 35 60 52 E7 57 D8 34 9B 0A E4 DC AB 6C 8F
 14 6C 89 46 8B 73 35 D2 9F 4B 9D EC 74 E3 EE 98
 C8 B0 9F F8 34 FD 83 C9 68 A4 9B C0 4B 74 83 4A
 15 B2 16 16 D9 40 5F 33 CB 7F F2 13 E0 CF 08 E7
 F4 CC 13 16 07 13 47 DE 0E 10 DC 29 86 D9 76 18
 8B 46 13 ED 6E 81 75 37 10 9E E6 6F 95 4B D4 98
 59 71 47 D3 C1 83 90 0B 50 F6 A6 E4 79 A4 34 98
 ED 38 3C CF 67 C3 C2 1B CA 37 E8 E5 2E 28 B3 44
 4A 37 16 E5 D5 B9 F0 89 EA 99 B8 18 5C E8 BA 14
 A8 4B D1 F8 F1 BE 74 C4 B5 07 FB 38 B9 2E 96 6F
 ED 39 87 DC 39 E6 A7 E1 07 FD 8E 34 8A FC 68 E9
 39 86 E3 12 2D EF B7 1F 18 CB A9 48 31 E2 52 A2
 33 F6 26 88 38 FF D1 BC E9 41 F7 F6 4D FC 2D BD
 BB 01 34 05 20 18 8E 04 89 37 6A C5 67 FE 4E CB
 B8 7B A8 2F 1E 0D 13 8F 14 09 DE 03 04 35 55 9D
 FA 6C 56 0D E5 E2 B9 69 86 B0 30 1F AE 4F 92 05
 93 8E DB 29 41 DE AA D6 A1 EE 29 A4 4B F5 BD 1F
 32 EF 47 D1 DF D3 20 C5 BB 3A 8F 51 38 06 80 7D
 9D 4A 7C AE F1 5A 78 68 6A 9F 12 43 7B 1B D7 63
 8D 84 44 19 B8 36 AC 18 06 AC 7A BF 9F DB B6 CB
 BD A7 86 21 4E 43 01 72 38 59 E3 9D CE 34 11 25
 78 AE 5D B9 BD 40 5C 1B F7 09 39 AF D3 99 37 B9
 E4 45 62 F6 D7 3B 9B 9A E6 D6 1D 33 59 4A 1A E1
 34 A2 EB 41 71 A6 37 2D BB AE 47 6D 81 AD 35 F3
 07 B2 02 29 7E CE 18 F2 82 D5 5D 9D 78 6F 1D EF
 9A 11 77 6B 31 19 66 FA AF C5 43 C0 9A 16 54 72
 24 0A F7 FB D8 B6 74 FD 4A A1 68 D3 FB 80 74 04
 E1 4A A1 C4 FE 54 A7 AB 40 8C 62 C5 03 99 CF 69
 7E D6 AC E0 C2 CA EB C8 F6 F7 A3 70 CE 54 3C 60
 64 98 83 7A ED 2F 22 73 CA A6 B4 C4 D7 ED 5D 2C
 60 29 9A 02 B7 A1 E1 36 85 4C 36 80 DF 29 F1 3F
 EC 59 8B A6 24 99 A2 9F 6B 66 69 5A F6 D9 E9 B0
 4B 4B 93 6F 0C 9C 27 24 F7 86 BF 60 07 7B C9 F6
 75 08 BF 66 A9 E9 16 8C 12 6D C2 F6 37 3B 3D 29
 A4 5C 63 5E BE 69 10 98 DE B6 DD 12 D0 2E F0 A1
 C9 23 8A 0F 46 4A D7 31 F7 35 0E AC D1 94 67 45
 BD 35 15 20 99 3F 67 45 5F D2 9C C6 16 51 41 07
 9F C7 03 E5 DF 2B 8D 59 27 F5 65 41 E1 89 6C 97
 27 F5 10 96 86 11 B0 18 57 03 54 44 42 CB 82 E4
 3D 4D 0B 03 5B E6 9A A4 B5 13 59 CE 6B 80 FC 2F
 BA 10 8B AC DA 7B 1F E7 46 32 EA DC 5F D9 43 BA
 B8 1E F8 B7 7C 64 27 3F 0B FA 9C 07 4A 00 52 C9
 AC 83 3D 73 75 4F 28 65 42 4B 2C F2 E9 82 34 4E
 01 D6 8D 86 06 FA CD 9F 00 C9 F9 94 48 65 60 75
 DC 84 3F 28 3D 09 A8 96 EA D9 87 AD 4E 07 38 70
 92 4B 85 FE 09 D0 EF 39 84 5C 99 23 25 38 49 5F
 F7 EB 80 90 A4 32 C8 F2 BD AC 26 00 8F 17 CC 91
 E9 4F 33 C4 3D 9D DE 65 5F 11 CC 79 FA DA C2 28
 C9 81 74 DC A5 73 00 6A 54 71 C2 2C A7 68 BC 49
 73 F1 56 9A 84 3B 63 B9 68 06 B2 0D FA A5 1F 93
 0C 56 8D 88 B4 0B 8F 2C 72 81 F5 0F 2B E4 D4 8A
 80 F7 73 2E F2 A6 50 C4 0E 61 94 D1 3A 50 EA 3B
 CC 98 41 0F DB 73 B3 3B D2 35 79 19 7C B4 B3 86
 FC B2 18 9D 4A 48 AE 14 F0 88 5A 9B C5 37 19 4F
 2E 55 98 42 CC 4C 68 E1 F3 6E 70 60 47 50 E8 E5
 F3 C3 BD CD C8 0A 78 BF A6 F6 E9 60 02 DF 0E 25
 2C 3B 6D 81 6B C2 41 EC 85 19 DE 8B 3C BD 52 6F
 03 DC 7D AB 69 43 97 3A 79 9B D6 45 DB C6 03 EF
 E7 8D 81 AA AE 6B DB 9B 33 87 0C 6B 3D 55 0F 13
 F4 7A 4B 33 17 16 55 D2 93 91 F8 D1 71 2B 43 B9
 79 3F 32 2F EA 99 D3 1D 45 79 2D 4A 8E D8 0B 10
 13 D2 E8 48 C6 C4 0E 9D 7C F3 82 E3 46 6A F1 13
 48 54 D5 AF E4 AC 86 BA 46 48 6E DD 69 DD 1A D8
 7B ED 71 A7 FD AA 3F 00 95 BD C6 4B D6 DB DC 31
 8C 7C 0D F2 EA 09 B0 09 66 76 FA 84 82 C8 03 C7
 24 A8 8C AF 00 76 A0 3D 68 DD 60 10 EA AA 09 86
 CC 72 7A 10 55 A4 94 13 DF 16 08 9C 8A DC 06 9E
 66 F5 C4 AD 7D 67 C1 22 76 C2 95 52 BA C2 61 A3
 5B C1 98 F7 92 EE 96 50 2B F1 8B 51 B8 38 F7 D4
 25 37 7B DD 86 41 C6 02 DB B2 1E 82 F0 71 71 DA
 CB 52 DB CC 88 A6 DB 4A BC 74 7B 98 2A F8 08 85
 D3 8A 6A E7 01 18 35 81 51 69 6D E5 B0 4C FA 20
 0C 9B D0 1D 7F 5B B6 60 D6 FF DB 1A C3 BF C5 D9
 C4 2C FE C0 1A 71 C0 3B 7A B4 E9 4E F6 AF 0C B0
 DA 6C 6E BD 03 5B A5 95 57 5A 91 39 07 36 A1 F7
 BC 26 90 E5 C4 39 92 B7 AD FB 81 1B C2 25 5A 5A
 6E 0C 11 55 72 31 91 77 9B D8 70 30 EA DE 46 21
 76 D5 21 95 DC E9 9D E5 25 C6 36 0E 48 FD C1 9A
 39 0C D1 53 F1 C3 F3 EF D4 00 90 1B 3B 50 80 3B
 BB 38 0A 50 88 30 A6 4B C0 EB E7 19 40 82 84 1B
 CA 23 61 23 FC 3C 9B 3C 72 EB EA 3A A8 38 4C BA
 93 72 74 D9 C7 F1 4E 41 99 E5 BE 54 74 4B 1E 3D
 27 E6 FF DB 9E 71 53 E2 40 EC 47 87 7F AB E4 A4
 4C 0E 45 48 1E 38 8A 90 A7 7C 5D 16 1D 56 C1 77
 99 2E 41 B2 80 79 56 95 62 F4 54 9F 7E 99 69 C3
 89 3E 1A 8B D0 48 2E A6 D6 6B E4 79 04 4D C5 9D
 A3 33 88 45 7B 86 9A 0D FB E4 08 2A 01 ED AB 8E
 12 4A 8B 71 90 96 B4 C6 B1 CC 66 77 FD 76 E1 D1
 26 22 8A 8A D6 78 7B 0B 9C 05 A0 98 05 F4 8B C3
 7E 18 C5 69 33 E1 DC BF 28 1D 2D B3 D4 D6 E5 E5
 F6 F8 1E 89 38 40 E2 E7 D2 45 A5 D6 B9 CB 9D D4
 5D DC 59 A0 B9 84 C1 46 A2 B4 CF 73 74 08 66 25
 44 51 09 FF 08 DF EF 2D A9 F0 C8 C5 D2 A7 1D 86
 09 02 D1 38 11 93 AC 38 80 BA 68 B1 07 3B F5 EE
 8A E0 15 13 68 86 27 1A 77 2B 0C AE E7 E2 A8 68
 8B AC 4C D7 00 1C 32 FB B2 05 CC CB 51 B1 E6 68
 20 D5 57 D5 A5 E0 2C BA E4 9B 9A BB 66 49 46 24
 35 0C A3 69 B0 0B 69 31 21 09 D2 CE CC 24 60 C1
 99 90 27 BC 71 BC 2B 5D B3 BF 58 C8 E4 16 34 B7
 28 79 BB 57 FF 03 8A 4D 48 FD D5 0B 97 52 69 86
 60 5D DB 65 A7 3E 21 DA BC 90 45 E7 DD 64 4C CC
 ED 95 0C C6 7B C0 EF 41 DF A5 32 E7 6E 20 D1 6F
 F7 17 47 F1 4B BB 5A BA 02 F5 86 FB 5E 6A 8D C3
 64 8D 95 5B 6F 6C CB 21 0C 59 57 31 A6 E7 17 98
 00 08 11 12 21 CC D4 5F A4 8E EC 5C 0C 83 45 48
 86 3B 23 0A D3 0D 9A 11 84 69 6E 4A 57 F1 6B F9
 4C 0A B6 97 AD 4E 92 1E DC AB 01 1D AF 1E BE 37
 63 BD C1 89 1B 6F 61 B7 A9 4F A9 FC F0 45 69 35
 84 EE 29 D8 14 15 25 4D 26 37 EA 4C 79 68 11 A6
 D3 10 07 CD AF 5C B8 F8 8F 6F 7D 88 21 CB CE EA
 02 54 7D 98 39 9F 2F 57 2C 0D 3B 3F D3 E8 41 74
 81 E4 EC 9C F3 3A 57 D0 68 F2 1D A5 B6 6E DE E5
 37 7C FB AC 94 A3 4D D2 41 FD 26 69 D2 A2 0E A8
 A4 B7 7E F4 8E 9A B3 AD 62 80 35 E2 46 3C DD 88
 F4 D4 DC 8C 91 C2 A5 7B C0 10 23 B9 38 45 26 F9
 69 46 78 3C C6 6E C7 18 40 CF 91 B6 41 A2 69 09
 C1 CE 51 B5 E4 3C 18 76 1F B4 1D 7C 66 D6 4A 17
 C3 38 3F DB D8 64 AD 98 49 58 B4 38 0E 37 53 E1
 88 07 6E B8 05 F7 06 DC 2B D7 A7 C3 80 CC 64 9A
 21 2D 48 C7 02 24 72 D4 5B F3 22 72 2F 29 49 0D
 AC 4F 3D B0 13 0C 6D 14 30 F5 7B 1E FB 70 D8 34
 25 C8 88 12 E2 D1 49 72 EE 6D F2 B3 A9 B4 6C 82
 53 51 70 1C 1F A5 63 CC 50 95 EF F1 FE 6B CD 0B
 FC C4 E2 71 E5 B7 D9 35 C0 BB C3 F4 00 1A 87 66
 97 71 18 50 88 C3 07 71 E3 63 8F 9F 47 AE 99 23
 79 E0 75 D0 A5 41 A6 7F 01 6D 67 4E 54 1F C4 AD
 71 87 63 C2 E8 6F 21 A1 DA CE DB 9F 91 23 36 0D
 DC 98 AE F2 3D 71 92 99 0A BF 91 23 7D F0 2A 67
 B5 C1 E3 09 98 02 C2 D4 C4 59 B5 18 FC BD F9 91
 1D 16 AB 87 1B 0C 88 47 F3 5C 94 2E 69 B3 87 62
 4B 63 62 67 7A C1 B5 58 59 84 FB D6 13 51 DC 71
 CE D2 28 3A FE 62 71 DA C4 DB FA E5 51 AC A2 28
 8A E0 0C 8A B4 D6 5D A3 E9 C0 7F 02 44 C5 73 81
 15 1C 97 28 66 0B 3F 60 40 88 8A EB 01 7C E4 6D
 8F 3D 8B 6F 34 4F E0 7C A9 FF D7 41 9E A1 77 F0
 51 FC 75 E1 65 CC 78 8F A1 2E DD BF 0F 87 4E A2
 87 14 D0 4A FF 5E D7 6D B2 00 BC 62 3A 0B 23 C1
 65 14 49 D9 8D 3D E8 4C 32 D8 5E 3C F4 64 EC 3B
 4B BD 48 93 67 23 42 FE DC 92 AB 16 98 27 73 F6
 51 2D 15 E0 9F 38 3F 53 35 48 BE 4A C2 A2 10 55
 AB 79 72 11 74 5D 8F 1A DA 28 6C FD CF 46 E2 15
 2A 85 A2 27 C7 3B 4F D7 B0 38 58 20 A4 8F 57 CA
 D0 87 23 01 82 25 F6 B5 18 3B 56 9C 23 C9 47 DF
 5D 07 F5 9A 7C F9 8A 3A B5 9F FE FE 4B 6F 93 02
 11 E9 E4 F2 47 D8 46 B8 F1 23 EE 63 39 FB 7E 50
 B4 B4 E2 B8 82 B8 03 CB 2D 22 63 E6 74 90 7E 45
 26 E8 3A 7E 7B CE A6 E8 7D 72 33 92 78 79 58 39
 DA 70 FB 73 21 21 44 07 B9 B0 FF C4 48 10 B1 58
 F0 08 30 74 4D A5 9C DC 04 3A 21 FD 16 5C E2 D3
 59 88 C8 53 3C 2E 25 7B 42 96 EE 9E 94 5D 7C EE
 7E 26 8C 4B 3B EB 05 27 0F 65 1E 3D 21 E7 C6 7B
 72 CF 53 96 57 99 E2 79 21 15 AA FA 76 CF 59 20
 9D 7C 63 33 AE 00 62 4F 6C 00 8B 04 45 28 F9 80
 99 2B D6 12 DD FC AC 6A 14 11 47 21 59 43 D6 B0
 EF 37 EF 19 B2 FF 33 6D AC C4 F8 56 4E EA BA A4
 F8 A9 92 2D 5E 37 ED 13 6B 57 D5 43 3C 3A 42 F8
 F5 9E 32 BF 30 7B 2E B6 52 6F 60 36 2C 36 14 F2
 75 3D E7 86 D9 6F 99 AC C6 24 4A 18 C7 6F 3F 4D
 BE F5 C6 58 30 E7 4A 48 18 90 E8 60 57 8F D8 52
 97 5D 26 2C C5 2F 6D 02 0E 04 15 08 BA 32 FC 3E
 48 C2 44 7A D6 0B EF 5C FC 65 AE 25 C3 7E 60 95
 F2 1F 0E D1 63 40 C9 B9 CA 8A 33 DD CE 65 A6 C6
 DB 05 69 87 D7 B9 EA D3 A2 D4 7F EE D3 98 7C 50
 CF E7 73 75 C6 5A F0 BF A8 27 E0 FA 71 87 8D 44
 BE 38 66 EB 16 86 9D A8 BB 8D 22 28 EE 87 95 AB
 A3 DF F6 E6 D7 71 40 43 0E E2 AC 19 74 81 CB 99
 02 ED 61 99 EE 13 54 86 61 D2 64 8D 9C F9 8A C7
 94 4E 77 E5 81 5F 0A 1D 02 3B 08 8F 8A 3F 59 9A
 80 DD 75 87 CE 17 76 1B 0B 63 EA 52 FF 35 E3 30
 A5 17 0C 1D 5B 56 6B CC D9 4E D7 DD 42 0D B3 D2
 3E 64 2E C9 DF E4 4D 44 36 48 FE 4B E7 A2 8F EA
 F7 56 09 E9 DB B0 73 73 F4 09 57 76 C3 93 F3 74
 3C A6 16 24 DE 42 BA 18 4C FB 00 5A 81 BE 55 63
 35 00 8B C2 B3 65 23 8D A6 94 41 A5 04 90 DA 86
 66 1D 62 05 A2 FA 0E C4 BE F0 CA DF 0E CA 95 AC
 11 03 6C 9E 6E 27 27 74 21 DF B4 32 BF A8 2D 98
 AB 2E 14 67 18 33 F0 F7 E3 7F BF 4B 61 18 CA 0B
 39 1F CE 0E FF 05 F5 EB 2E 6A E9 6B 96 BF 72 FA
 2F D2 CA 69 9B 83 9E 9C 63 66 1B 17 CD 44 41 20
 A0 DE 44 CD E1 DC 43 8E 46 91 DC 34 73 89 50 62
 70 BF 5B CA 95 BB 53 D5 55 C6 68 B7 8C A6 B8 53
 B2 A7 F0 2F D5 1A 6E 0F 38 7A C6 F9 AE D7 4C 2F
 9C CC E7 7A 2A E2 94 A6 E1 5A 82 CC BA 25 2E 11
 75 7D 00 0A 5F 87 3C 8B C3 99 04 30 67 C0 92 3B
 11 99 5A D3 F1 12 8D 7C
* End 833934378 1378056068
